
---------- Begin Simulation Statistics ----------
final_tick                                 6956845000                       # Number of ticks from beginning of simulation (restored from checkpoints and never reset)
host_inst_rate                                 224338                       # Simulator instruction rate (inst/s)
host_mem_usage                                 793308                       # Number of bytes of host memory used
host_op_rate                                   345262                       # Simulator op (including micro ops) rate (op/s)
host_seconds                                    64.01                       # Real time elapsed on the host
host_tick_rate                              108690126                       # Simulator tick rate (ticks/s)
sim_freq                                 1000000000000                       # Frequency of simulated ticks
sim_insts                                    14359017                       # Number of instructions simulated
sim_ops                                      22098933                       # Number of ops (including micro ops) simulated
sim_seconds                                  0.006957                       # Number of seconds simulated
sim_ticks                                  6956845000                       # Number of ticks simulated
system.cpu.branchPred.BTBCorrect                    0                       # Number of correct BTB predictions (this stat may not work properly.
system.cpu.branchPred.BTBHitPct              0.000000                       # BTB Hit Percentage
system.cpu.branchPred.BTBHits                       0                       # Number of BTB hits
system.cpu.branchPred.BTBLookups               264975                       # Number of BTB lookups
system.cpu.branchPred.RASInCorrect                  1                       # Number of incorrect RAS predictions.
system.cpu.branchPred.condIncorrect               790                       # Number of conditional branches incorrect
system.cpu.branchPred.condPredicted            297803                       # Number of conditional branches predicted
system.cpu.branchPred.indirectHits             262724                       # Number of indirect target hits.
system.cpu.branchPred.indirectLookups          264975                       # Number of indirect predictor lookups.
system.cpu.branchPred.indirectMisses             2251                       # Number of indirect misses.
system.cpu.branchPred.lookups                  298541                       # Number of BP lookups
system.cpu.branchPred.usedRAS                     274                       # Number of times the RAS was used to get a target.
system.cpu.branchPredindirectMispredicted          436                       # Number of mispredicted indirect branches.
system.cpu.cc_regfile_reads                   1482624                       # number of cc regfile reads
system.cpu.cc_regfile_writes                  1710100                       # number of cc regfile writes
system.cpu.commit.amos                              0                       # Number of atomic instructions committed
system.cpu.commit.branchMispredicts               800                       # The number of times a branch was mispredicted
system.cpu.commit.branches                     296366                       # Number of branches committed
system.cpu.commit.bw_lim_events               2029521                       # number cycles where commit BW limit reached
system.cpu.commit.commitNonSpecStalls               8                       # The number of times commit has been forced to stall to communicate backwards
system.cpu.commit.commitSquashedInsts           26066                       # The number of squashed insts skipped by commit
system.cpu.commit.committedInsts             14359017                       # Number of instructions committed
system.cpu.commit.committedOps               22098933                       # Number of ops (including micro ops) committed
system.cpu.commit.committed_per_cycle::samples      6940053                       # Number of insts commited each cycle
system.cpu.commit.committed_per_cycle::mean     3.184260                       # Number of insts commited each cycle
system.cpu.commit.committed_per_cycle::stdev     3.423238                       # Number of insts commited each cycle
system.cpu.commit.committed_per_cycle::underflows            0      0.00%      0.00% # Number of insts commited each cycle
system.cpu.commit.committed_per_cycle::0      1908072     27.49%     27.49% # Number of insts commited each cycle
system.cpu.commit.committed_per_cycle::1      2306258     33.23%     60.72% # Number of insts commited each cycle
system.cpu.commit.committed_per_cycle::2        15570      0.22%     60.95% # Number of insts commited each cycle
system.cpu.commit.committed_per_cycle::3         4500      0.06%     61.01% # Number of insts commited each cycle
system.cpu.commit.committed_per_cycle::4       341133      4.92%     65.93% # Number of insts commited each cycle
system.cpu.commit.committed_per_cycle::5        47119      0.68%     66.61% # Number of insts commited each cycle
system.cpu.commit.committed_per_cycle::6       103420      1.49%     68.10% # Number of insts commited each cycle
system.cpu.commit.committed_per_cycle::7       184460      2.66%     70.76% # Number of insts commited each cycle
system.cpu.commit.committed_per_cycle::8      2029521     29.24%    100.00% # Number of insts commited each cycle
system.cpu.commit.committed_per_cycle::overflows            0      0.00%    100.00% # Number of insts commited each cycle
system.cpu.commit.committed_per_cycle::min_value            0                       # Number of insts commited each cycle
system.cpu.commit.committed_per_cycle::max_value            8                       # Number of insts commited each cycle
system.cpu.commit.committed_per_cycle::total      6940053                       # Number of insts commited each cycle
system.cpu.commit.fp_insts                   14942496                       # Number of committed floating point instructions.
system.cpu.commit.function_calls                   88                       # Number of function calls committed.
system.cpu.commit.int_insts                  13677168                       # Number of committed integer instructions.
system.cpu.commit.loads                       4523571                       # Number of loads committed
system.cpu.commit.membars                           0                       # Number of memory barriers committed
system.cpu.commit.op_class_0::No_OpClass        33063      0.15%      0.15% # Class of committed instruction
system.cpu.commit.op_class_0::IntAlu          7055063     31.92%     32.07% # Class of committed instruction
system.cpu.commit.op_class_0::IntMult               5      0.00%     32.07% # Class of committed instruction
system.cpu.commit.op_class_0::IntDiv               21      0.00%     32.07% # Class of committed instruction
system.cpu.commit.op_class_0::FloatAdd        4194306     18.98%     51.05% # Class of committed instruction
system.cpu.commit.op_class_0::FloatCmp              0      0.00%     51.05% # Class of committed instruction
system.cpu.commit.op_class_0::FloatCvt              0      0.00%     51.05% # Class of committed instruction
system.cpu.commit.op_class_0::FloatMult             0      0.00%     51.05% # Class of committed instruction
system.cpu.commit.op_class_0::FloatMultAcc            0      0.00%     51.05% # Class of committed instruction
system.cpu.commit.op_class_0::FloatDiv              0      0.00%     51.05% # Class of committed instruction
system.cpu.commit.op_class_0::FloatMisc             0      0.00%     51.05% # Class of committed instruction
system.cpu.commit.op_class_0::FloatSqrt             0      0.00%     51.05% # Class of committed instruction
system.cpu.commit.op_class_0::SimdAdd               0      0.00%     51.05% # Class of committed instruction
system.cpu.commit.op_class_0::SimdAddAcc            0      0.00%     51.05% # Class of committed instruction
system.cpu.commit.op_class_0::SimdAlu              34      0.00%     51.05% # Class of committed instruction
system.cpu.commit.op_class_0::SimdCmp               0      0.00%     51.05% # Class of committed instruction
system.cpu.commit.op_class_0::SimdCvt              28      0.00%     51.05% # Class of committed instruction
system.cpu.commit.op_class_0::SimdMisc             42      0.00%     51.05% # Class of committed instruction
system.cpu.commit.op_class_0::SimdMult              0      0.00%     51.05% # Class of committed instruction
system.cpu.commit.op_class_0::SimdMultAcc            0      0.00%     51.05% # Class of committed instruction
system.cpu.commit.op_class_0::SimdShift             0      0.00%     51.05% # Class of committed instruction
system.cpu.commit.op_class_0::SimdShiftAcc            0      0.00%     51.05% # Class of committed instruction
system.cpu.commit.op_class_0::SimdDiv               0      0.00%     51.05% # Class of committed instruction
system.cpu.commit.op_class_0::SimdSqrt              0      0.00%     51.05% # Class of committed instruction
system.cpu.commit.op_class_0::SimdFloatAdd      2097152      9.49%     60.54% # Class of committed instruction
system.cpu.commit.op_class_0::SimdFloatAlu            0      0.00%     60.54% # Class of committed instruction
system.cpu.commit.op_class_0::SimdFloatCmp            0      0.00%     60.54% # Class of committed instruction
system.cpu.commit.op_class_0::SimdFloatCvt            0      0.00%     60.54% # Class of committed instruction
system.cpu.commit.op_class_0::SimdFloatDiv            0      0.00%     60.54% # Class of committed instruction
system.cpu.commit.op_class_0::SimdFloatMisc            0      0.00%     60.54% # Class of committed instruction
system.cpu.commit.op_class_0::SimdFloatMult      2097152      9.49%     70.03% # Class of committed instruction
system.cpu.commit.op_class_0::SimdFloatMultAcc            0      0.00%     70.03% # Class of committed instruction
system.cpu.commit.op_class_0::SimdFloatSqrt            0      0.00%     70.03% # Class of committed instruction
system.cpu.commit.op_class_0::SimdReduceAdd            0      0.00%     70.03% # Class of committed instruction
system.cpu.commit.op_class_0::SimdReduceAlu            0      0.00%     70.03% # Class of committed instruction
system.cpu.commit.op_class_0::SimdReduceCmp            0      0.00%     70.03% # Class of committed instruction
system.cpu.commit.op_class_0::SimdFloatReduceAdd            0      0.00%     70.03% # Class of committed instruction
system.cpu.commit.op_class_0::SimdFloatReduceCmp            0      0.00%     70.03% # Class of committed instruction
system.cpu.commit.op_class_0::SimdAes               0      0.00%     70.03% # Class of committed instruction
system.cpu.commit.op_class_0::SimdAesMix            0      0.00%     70.03% # Class of committed instruction
system.cpu.commit.op_class_0::SimdSha1Hash            0      0.00%     70.03% # Class of committed instruction
system.cpu.commit.op_class_0::SimdSha1Hash2            0      0.00%     70.03% # Class of committed instruction
system.cpu.commit.op_class_0::SimdSha256Hash            0      0.00%     70.03% # Class of committed instruction
system.cpu.commit.op_class_0::SimdSha256Hash2            0      0.00%     70.03% # Class of committed instruction
system.cpu.commit.op_class_0::SimdShaSigma2            0      0.00%     70.03% # Class of committed instruction
system.cpu.commit.op_class_0::SimdShaSigma3            0      0.00%     70.03% # Class of committed instruction
system.cpu.commit.op_class_0::SimdPredAlu            0      0.00%     70.03% # Class of committed instruction
system.cpu.commit.op_class_0::MemRead           67099      0.30%     70.34% # Class of committed instruction
system.cpu.commit.op_class_0::MemWrite           1192      0.01%     70.34% # Class of committed instruction
system.cpu.commit.op_class_0::FloatMemRead      4456472     20.17%     90.51% # Class of committed instruction
system.cpu.commit.op_class_0::FloatMemWrite      2097304      9.49%    100.00% # Class of committed instruction
system.cpu.commit.op_class_0::IprAccess             0      0.00%    100.00% # Class of committed instruction
system.cpu.commit.op_class_0::InstPrefetch            0      0.00%    100.00% # Class of committed instruction
system.cpu.commit.op_class_0::total          22098933                       # Class of committed instruction
system.cpu.commit.refs                        6622067                       # Number of memory references committed
system.cpu.commit.swp_count                         0                       # Number of s/w prefetches committed
system.cpu.commit.vec_insts                         0                       # Number of committed Vector instructions.
system.cpu.committedInsts                    14359017                       # Number of Instructions Simulated
system.cpu.committedOps                      22098933                       # Number of Ops (including micro ops) Simulated
system.cpu.cpi                               0.484493                       # CPI: Cycles Per Instruction
system.cpu.cpi_total                         0.484493                       # CPI: Total CPI of All Threads
system.cpu.decode.BlockedCycles               3544102                       # Number of cycles decode is blocked
system.cpu.decode.DecodedInsts               22138412                       # Number of instructions handled by decode
system.cpu.decode.IdleCycles                   521743                       # Number of cycles decode is idle
system.cpu.decode.RunCycles                   1688010                       # Number of cycles decode is running
system.cpu.decode.SquashCycles                    944                       # Number of cycles decode is squashing
system.cpu.decode.UnblockCycles               1189119                       # Number of cycles decode is unblocking
system.cpu.dtb.rdAccesses                     4894287                       # TLB accesses on read requests
system.cpu.dtb.rdMisses                            98                       # TLB misses on read requests
system.cpu.dtb.wrAccesses                     2099153                       # TLB accesses on write requests
system.cpu.dtb.wrMisses                            11                       # TLB misses on write requests
system.cpu.fetch.Branches                      298541                       # Number of branches that fetch encountered
system.cpu.fetch.CacheLines                   1642601                       # Number of cache lines fetched
system.cpu.fetch.Cycles                       5291042                       # Number of cycles fetch has run and was not squashing or blocked
system.cpu.fetch.IcacheSquashes                   419                       # Number of outstanding Icache misses that were squashed
system.cpu.fetch.Insts                       14387591                       # Number of instructions fetch has processed
system.cpu.fetch.MiscStallCycles                   15                       # Number of cycles fetch has spent waiting on interrupts, or bad addresses, or out of MSHRs
system.cpu.fetch.PendingQuiesceStallCycles            7                       # Number of stall cycles due to pending quiesce instructions
system.cpu.fetch.PendingTrapStallCycles            70                       # Number of stall cycles due to pending traps
system.cpu.fetch.SquashCycles                    1888                       # Number of cycles fetch has spent squashing
system.cpu.fetch.branchRate                  0.042913                       # Number of branch fetches per cycle
system.cpu.fetch.icacheStallCycles            1651840                       # Number of cycles fetch is stalled on an Icache miss
system.cpu.fetch.predictedBranches             262998                       # Number of branches that fetch has predicted taken
system.cpu.fetch.rate                        2.068120                       # Number of inst fetches per cycle
system.cpu.fetch.rateDist::samples            6943918                       # Number of instructions fetched each cycle (Total)
system.cpu.fetch.rateDist::mean              3.189149                       # Number of instructions fetched each cycle (Total)
system.cpu.fetch.rateDist::stdev             3.500862                       # Number of instructions fetched each cycle (Total)
system.cpu.fetch.rateDist::underflows               0      0.00%      0.00% # Number of instructions fetched each cycle (Total)
system.cpu.fetch.rateDist::0                  3368961     48.52%     48.52% # Number of instructions fetched each cycle (Total)
system.cpu.fetch.rateDist::1                   106517      1.53%     50.05% # Number of instructions fetched each cycle (Total)
system.cpu.fetch.rateDist::2                   344946      4.97%     55.02% # Number of instructions fetched each cycle (Total)
system.cpu.fetch.rateDist::3                   180101      2.59%     57.61% # Number of instructions fetched each cycle (Total)
system.cpu.fetch.rateDist::4                   319878      4.61%     62.22% # Number of instructions fetched each cycle (Total)
system.cpu.fetch.rateDist::5                    96039      1.38%     63.60% # Number of instructions fetched each cycle (Total)
system.cpu.fetch.rateDist::6                   455043      6.55%     70.15% # Number of instructions fetched each cycle (Total)
system.cpu.fetch.rateDist::7                   260955      3.76%     73.91% # Number of instructions fetched each cycle (Total)
system.cpu.fetch.rateDist::8                  1811478     26.09%    100.00% # Number of instructions fetched each cycle (Total)
system.cpu.fetch.rateDist::overflows                0      0.00%    100.00% # Number of instructions fetched each cycle (Total)
system.cpu.fetch.rateDist::min_value                0                       # Number of instructions fetched each cycle (Total)
system.cpu.fetch.rateDist::max_value                8                       # Number of instructions fetched each cycle (Total)
system.cpu.fetch.rateDist::total              6943918                       # Number of instructions fetched each cycle (Total)
system.cpu.fp_regfile_reads                  14681344                       # number of floating regfile reads
system.cpu.fp_regfile_writes                 12847115                       # number of floating regfile writes
system.cpu.idleCycles                           12928                       # Total number of cycles that the CPU has spent unscheduled due to idling
system.cpu.iew.branchMispredicts                  944                       # Number of branch mispredicts detected at execute
system.cpu.iew.exec_branches                   296858                       # Number of branches executed
system.cpu.iew.exec_nop                             0                       # number of nop insts executed
system.cpu.iew.exec_rate                     3.194261                       # Inst execution rate
system.cpu.iew.exec_refs                      6731391                       # number of memory reference insts executed
system.cpu.iew.exec_stores                    2099152                       # Number of stores executed
system.cpu.iew.exec_swp                             0                       # number of swp insts executed
system.cpu.iew.iewBlockCycles                    7064                       # Number of cycles IEW is blocking
system.cpu.iew.iewDispLoadInsts               4527048                       # Number of dispatched load instructions
system.cpu.iew.iewDispNonSpecInsts                 28                       # Number of dispatched non-speculative instructions
system.cpu.iew.iewDispSquashedInsts                19                       # Number of squashed instructions skipped by dispatch
system.cpu.iew.iewDispStoreInsts              2100289                       # Number of dispatched store instructions
system.cpu.iew.iewDispatchedInsts            22124979                       # Number of instructions dispatched to IQ
system.cpu.iew.iewExecLoadInsts               4632239                       # Number of load instructions executed
system.cpu.iew.iewExecSquashedInsts              2341                       # Number of squashed instructions skipped in execute
system.cpu.iew.iewExecutedInsts              22221982                       # Number of executed instructions
system.cpu.iew.iewIQFullEvents                    171                       # Number of times the IQ has become full, causing a stall
system.cpu.iew.iewIdleCycles                        0                       # Number of cycles IEW is idle
system.cpu.iew.iewLSQFullEvents                 75163                       # Number of times the LSQ has become full, causing a stall
system.cpu.iew.iewSquashCycles                    944                       # Number of cycles IEW is squashing
system.cpu.iew.iewUnblockCycles                 75408                       # Number of cycles IEW is unblocking
system.cpu.iew.lsq.thread0.blockedLoads             0                       # Number of blocked loads due to partial load-store forwarding
system.cpu.iew.lsq.thread0.cacheBlocked            56                       # Number of times an access to memory failed due to the cache being blocked
system.cpu.iew.lsq.thread0.forwLoads              363                       # Number of loads that had data forwarded from stores
system.cpu.iew.lsq.thread0.ignoredResponses            1                       # Number of memory responses ignored because the instruction is squashed
system.cpu.iew.lsq.thread0.invAddrLoads             0                       # Number of loads ignored due to an invalid address
system.cpu.iew.lsq.thread0.invAddrSwpfs             0                       # Number of software prefetches ignored due to an invalid address
system.cpu.iew.lsq.thread0.memOrderViolation          157                       # Number of memory ordering violations
system.cpu.iew.lsq.thread0.rescheduledLoads       106798                       # Number of loads that were rescheduled
system.cpu.iew.lsq.thread0.squashedLoads         3477                       # Number of loads squashed
system.cpu.iew.lsq.thread0.squashedStores         1793                       # Number of stores squashed
system.cpu.iew.memOrderViolationEvents            157                       # Number of memory order violations
system.cpu.iew.predictedNotTakenIncorrect          674                       # Number of branches that were predicted not taken incorrectly
system.cpu.iew.predictedTakenIncorrect            270                       # Number of branches that were predicted taken incorrectly
system.cpu.iew.wb_consumers                  19382140                       # num instructions consuming a value
system.cpu.iew.wb_count                      22114161                       # cumulative count of insts written-back
system.cpu.iew.wb_fanout                     0.698385                       # average fanout of values written-back
system.cpu.iew.wb_producers                  13536199                       # num instructions producing a value
system.cpu.iew.wb_rate                       3.178762                       # insts written-back per cycle
system.cpu.iew.wb_sent                       22114478                       # cumulative count of insts sent to commit
system.cpu.int_regfile_reads                 24798098                       # number of integer regfile reads
system.cpu.int_regfile_writes                 6837789                       # number of integer regfile writes
system.cpu.ipc                               2.064012                       # IPC: Instructions Per Cycle
system.cpu.ipc_total                         2.064012                       # IPC: Total IPC of All Threads
system.cpu.iq.FU_type_0::No_OpClass             33626      0.15%      0.15% # Type of FU issued
system.cpu.iq.FU_type_0::IntAlu               7067576     31.80%     31.95% # Type of FU issued
system.cpu.iq.FU_type_0::IntMult                    5      0.00%     31.95% # Type of FU issued
system.cpu.iq.FU_type_0::IntDiv                    22      0.00%     31.95% # Type of FU issued
system.cpu.iq.FU_type_0::FloatAdd             4196350     18.88%     50.83% # Type of FU issued
system.cpu.iq.FU_type_0::FloatCmp                   0      0.00%     50.83% # Type of FU issued
system.cpu.iq.FU_type_0::FloatCvt                   0      0.00%     50.83% # Type of FU issued
system.cpu.iq.FU_type_0::FloatMult                  0      0.00%     50.83% # Type of FU issued
system.cpu.iq.FU_type_0::FloatMultAcc               0      0.00%     50.83% # Type of FU issued
system.cpu.iq.FU_type_0::FloatDiv                   0      0.00%     50.83% # Type of FU issued
system.cpu.iq.FU_type_0::FloatMisc                  0      0.00%     50.83% # Type of FU issued
system.cpu.iq.FU_type_0::FloatSqrt                  0      0.00%     50.83% # Type of FU issued
system.cpu.iq.FU_type_0::SimdAdd                    0      0.00%     50.83% # Type of FU issued
system.cpu.iq.FU_type_0::SimdAddAcc                 0      0.00%     50.83% # Type of FU issued
system.cpu.iq.FU_type_0::SimdAlu                   56      0.00%     50.83% # Type of FU issued
system.cpu.iq.FU_type_0::SimdCmp                    0      0.00%     50.83% # Type of FU issued
system.cpu.iq.FU_type_0::SimdCvt                   42      0.00%     50.83% # Type of FU issued
system.cpu.iq.FU_type_0::SimdMisc                  56      0.00%     50.83% # Type of FU issued
system.cpu.iq.FU_type_0::SimdMult                   0      0.00%     50.83% # Type of FU issued
system.cpu.iq.FU_type_0::SimdMultAcc                0      0.00%     50.83% # Type of FU issued
system.cpu.iq.FU_type_0::SimdShift                  0      0.00%     50.83% # Type of FU issued
system.cpu.iq.FU_type_0::SimdShiftAcc               0      0.00%     50.83% # Type of FU issued
system.cpu.iq.FU_type_0::SimdDiv                    0      0.00%     50.83% # Type of FU issued
system.cpu.iq.FU_type_0::SimdSqrt                   0      0.00%     50.83% # Type of FU issued
system.cpu.iq.FU_type_0::SimdFloatAdd         2097268      9.44%     60.27% # Type of FU issued
system.cpu.iq.FU_type_0::SimdFloatAlu               0      0.00%     60.27% # Type of FU issued
system.cpu.iq.FU_type_0::SimdFloatCmp               0      0.00%     60.27% # Type of FU issued
system.cpu.iq.FU_type_0::SimdFloatCvt               0      0.00%     60.27% # Type of FU issued
system.cpu.iq.FU_type_0::SimdFloatDiv               0      0.00%     60.27% # Type of FU issued
system.cpu.iq.FU_type_0::SimdFloatMisc              0      0.00%     60.27% # Type of FU issued
system.cpu.iq.FU_type_0::SimdFloatMult        2097292      9.44%     69.71% # Type of FU issued
system.cpu.iq.FU_type_0::SimdFloatMultAcc            0      0.00%     69.71% # Type of FU issued
system.cpu.iq.FU_type_0::SimdFloatSqrt              0      0.00%     69.71% # Type of FU issued
system.cpu.iq.FU_type_0::SimdReduceAdd              0      0.00%     69.71% # Type of FU issued
system.cpu.iq.FU_type_0::SimdReduceAlu              0      0.00%     69.71% # Type of FU issued
system.cpu.iq.FU_type_0::SimdReduceCmp              0      0.00%     69.71% # Type of FU issued
system.cpu.iq.FU_type_0::SimdFloatReduceAdd            0      0.00%     69.71% # Type of FU issued
system.cpu.iq.FU_type_0::SimdFloatReduceCmp            0      0.00%     69.71% # Type of FU issued
system.cpu.iq.FU_type_0::SimdAes                    0      0.00%     69.71% # Type of FU issued
system.cpu.iq.FU_type_0::SimdAesMix                 0      0.00%     69.71% # Type of FU issued
system.cpu.iq.FU_type_0::SimdSha1Hash               0      0.00%     69.71% # Type of FU issued
system.cpu.iq.FU_type_0::SimdSha1Hash2              0      0.00%     69.71% # Type of FU issued
system.cpu.iq.FU_type_0::SimdSha256Hash             0      0.00%     69.71% # Type of FU issued
system.cpu.iq.FU_type_0::SimdSha256Hash2            0      0.00%     69.71% # Type of FU issued
system.cpu.iq.FU_type_0::SimdShaSigma2              0      0.00%     69.71% # Type of FU issued
system.cpu.iq.FU_type_0::SimdShaSigma3              0      0.00%     69.71% # Type of FU issued
system.cpu.iq.FU_type_0::SimdPredAlu                0      0.00%     69.71% # Type of FU issued
system.cpu.iq.FU_type_0::MemRead                68427      0.31%     70.02% # Type of FU issued
system.cpu.iq.FU_type_0::MemWrite                1916      0.01%     70.03% # Type of FU issued
system.cpu.iq.FU_type_0::FloatMemRead         4564289     20.54%     90.56% # Type of FU issued
system.cpu.iq.FU_type_0::FloatMemWrite        2097398      9.44%    100.00% # Type of FU issued
system.cpu.iq.FU_type_0::IprAccess                  0      0.00%    100.00% # Type of FU issued
system.cpu.iq.FU_type_0::InstPrefetch               0      0.00%    100.00% # Type of FU issued
system.cpu.iq.FU_type_0::total               22224323                       # Type of FU issued
system.cpu.iq.fp_alu_accesses                15071809                       # Number of floating point alu accesses
system.cpu.iq.fp_inst_queue_reads            30124647                       # Number of floating instruction queue reads
system.cpu.iq.fp_inst_queue_wakeup_accesses     14944444                       # Number of floating instruction queue wakeup accesses
system.cpu.iq.fp_inst_queue_writes           14954230                       # Number of floating instruction queue writes
system.cpu.iq.fu_busy_cnt                       46267                       # FU busy when requested
system.cpu.iq.fu_busy_rate                   0.002082                       # FU busy rate (busy events/executed inst)
system.cpu.iq.fu_full::No_OpClass                   0      0.00%      0.00% # attempts to use FU when none available
system.cpu.iq.fu_full::IntAlu                   27187     58.76%     58.76% # attempts to use FU when none available
system.cpu.iq.fu_full::IntMult                      0      0.00%     58.76% # attempts to use FU when none available
system.cpu.iq.fu_full::IntDiv                       0      0.00%     58.76% # attempts to use FU when none available
system.cpu.iq.fu_full::FloatAdd                  4634     10.02%     68.78% # attempts to use FU when none available
system.cpu.iq.fu_full::FloatCmp                     0      0.00%     68.78% # attempts to use FU when none available
system.cpu.iq.fu_full::FloatCvt                     0      0.00%     68.78% # attempts to use FU when none available
system.cpu.iq.fu_full::FloatMult                    0      0.00%     68.78% # attempts to use FU when none available
system.cpu.iq.fu_full::FloatMultAcc                 0      0.00%     68.78% # attempts to use FU when none available
system.cpu.iq.fu_full::FloatDiv                     0      0.00%     68.78% # attempts to use FU when none available
system.cpu.iq.fu_full::FloatMisc                    0      0.00%     68.78% # attempts to use FU when none available
system.cpu.iq.fu_full::FloatSqrt                    0      0.00%     68.78% # attempts to use FU when none available
system.cpu.iq.fu_full::SimdAdd                      0      0.00%     68.78% # attempts to use FU when none available
system.cpu.iq.fu_full::SimdAddAcc                   0      0.00%     68.78% # attempts to use FU when none available
system.cpu.iq.fu_full::SimdAlu                      2      0.00%     68.78% # attempts to use FU when none available
system.cpu.iq.fu_full::SimdCmp                      0      0.00%     68.78% # attempts to use FU when none available
system.cpu.iq.fu_full::SimdCvt                      2      0.00%     68.79% # attempts to use FU when none available
system.cpu.iq.fu_full::SimdMisc                     0      0.00%     68.79% # attempts to use FU when none available
system.cpu.iq.fu_full::SimdMult                     0      0.00%     68.79% # attempts to use FU when none available
system.cpu.iq.fu_full::SimdMultAcc                  0      0.00%     68.79% # attempts to use FU when none available
system.cpu.iq.fu_full::SimdShift                    0      0.00%     68.79% # attempts to use FU when none available
system.cpu.iq.fu_full::SimdShiftAcc                 0      0.00%     68.79% # attempts to use FU when none available
system.cpu.iq.fu_full::SimdDiv                      0      0.00%     68.79% # attempts to use FU when none available
system.cpu.iq.fu_full::SimdSqrt                     0      0.00%     68.79% # attempts to use FU when none available
system.cpu.iq.fu_full::SimdFloatAdd                 0      0.00%     68.79% # attempts to use FU when none available
system.cpu.iq.fu_full::SimdFloatAlu                 0      0.00%     68.79% # attempts to use FU when none available
system.cpu.iq.fu_full::SimdFloatCmp                 0      0.00%     68.79% # attempts to use FU when none available
system.cpu.iq.fu_full::SimdFloatCvt                 0      0.00%     68.79% # attempts to use FU when none available
system.cpu.iq.fu_full::SimdFloatDiv                 0      0.00%     68.79% # attempts to use FU when none available
system.cpu.iq.fu_full::SimdFloatMisc                0      0.00%     68.79% # attempts to use FU when none available
system.cpu.iq.fu_full::SimdFloatMult            14391     31.10%     99.89% # attempts to use FU when none available
system.cpu.iq.fu_full::SimdFloatMultAcc             0      0.00%     99.89% # attempts to use FU when none available
system.cpu.iq.fu_full::SimdFloatSqrt                0      0.00%     99.89% # attempts to use FU when none available
system.cpu.iq.fu_full::SimdReduceAdd                0      0.00%     99.89% # attempts to use FU when none available
system.cpu.iq.fu_full::SimdReduceAlu                0      0.00%     99.89% # attempts to use FU when none available
system.cpu.iq.fu_full::SimdReduceCmp                0      0.00%     99.89% # attempts to use FU when none available
system.cpu.iq.fu_full::SimdFloatReduceAdd            0      0.00%     99.89% # attempts to use FU when none available
system.cpu.iq.fu_full::SimdFloatReduceCmp            0      0.00%     99.89% # attempts to use FU when none available
system.cpu.iq.fu_full::SimdAes                      0      0.00%     99.89% # attempts to use FU when none available
system.cpu.iq.fu_full::SimdAesMix                   0      0.00%     99.89% # attempts to use FU when none available
system.cpu.iq.fu_full::SimdSha1Hash                 0      0.00%     99.89% # attempts to use FU when none available
system.cpu.iq.fu_full::SimdSha1Hash2                0      0.00%     99.89% # attempts to use FU when none available
system.cpu.iq.fu_full::SimdSha256Hash               0      0.00%     99.89% # attempts to use FU when none available
system.cpu.iq.fu_full::SimdSha256Hash2              0      0.00%     99.89% # attempts to use FU when none available
system.cpu.iq.fu_full::SimdShaSigma2                0      0.00%     99.89% # attempts to use FU when none available
system.cpu.iq.fu_full::SimdShaSigma3                0      0.00%     99.89% # attempts to use FU when none available
system.cpu.iq.fu_full::SimdPredAlu                  0      0.00%     99.89% # attempts to use FU when none available
system.cpu.iq.fu_full::MemRead                      6      0.01%     99.90% # attempts to use FU when none available
system.cpu.iq.fu_full::MemWrite                    26      0.06%     99.96% # attempts to use FU when none available
system.cpu.iq.fu_full::FloatMemRead                12      0.03%     99.98% # attempts to use FU when none available
system.cpu.iq.fu_full::FloatMemWrite                7      0.02%    100.00% # attempts to use FU when none available
system.cpu.iq.fu_full::IprAccess                    0      0.00%    100.00% # attempts to use FU when none available
system.cpu.iq.fu_full::InstPrefetch                 0      0.00%    100.00% # attempts to use FU when none available
system.cpu.iq.int_alu_accesses                7165155                       # Number of integer alu accesses
system.cpu.iq.int_inst_queue_reads           21314508                       # Number of integer instruction queue reads
system.cpu.iq.int_inst_queue_wakeup_accesses      7169717                       # Number of integer instruction queue wakeup accesses
system.cpu.iq.int_inst_queue_writes           7196948                       # Number of integer instruction queue writes
system.cpu.iq.iqInstsAdded                   22124920                       # Number of instructions added to the IQ (excludes non-spec)
system.cpu.iq.iqInstsIssued                  22224323                       # Number of instructions issued
system.cpu.iq.iqNonSpecInstsAdded                  59                       # Number of non-speculative instructions added to the IQ
system.cpu.iq.iqSquashedInstsExamined           26045                       # Number of squashed instructions iterated over during squash; mainly for profiling
system.cpu.iq.iqSquashedInstsIssued               324                       # Number of squashed instructions issued
system.cpu.iq.iqSquashedNonSpecRemoved             51                       # Number of squashed non-spec instructions that were removed
system.cpu.iq.iqSquashedOperandsExamined        28716                       # Number of squashed operands that are examined and possibly removed from graph
system.cpu.iq.issued_per_cycle::samples       6943918                       # Number of insts issued each cycle
system.cpu.iq.issued_per_cycle::mean         3.200545                       # Number of insts issued each cycle
system.cpu.iq.issued_per_cycle::stdev        2.022156                       # Number of insts issued each cycle
system.cpu.iq.issued_per_cycle::underflows            0      0.00%      0.00% # Number of insts issued each cycle
system.cpu.iq.issued_per_cycle::0              634115      9.13%      9.13% # Number of insts issued each cycle
system.cpu.iq.issued_per_cycle::1              976833     14.07%     23.20% # Number of insts issued each cycle
system.cpu.iq.issued_per_cycle::2             1098767     15.82%     39.02% # Number of insts issued each cycle
system.cpu.iq.issued_per_cycle::3             1247962     17.97%     56.99% # Number of insts issued each cycle
system.cpu.iq.issued_per_cycle::4             1150387     16.57%     73.56% # Number of insts issued each cycle
system.cpu.iq.issued_per_cycle::5              981845     14.14%     87.70% # Number of insts issued each cycle
system.cpu.iq.issued_per_cycle::6              431793      6.22%     93.92% # Number of insts issued each cycle
system.cpu.iq.issued_per_cycle::7              173189      2.49%     96.41% # Number of insts issued each cycle
system.cpu.iq.issued_per_cycle::8              249027      3.59%    100.00% # Number of insts issued each cycle
system.cpu.iq.issued_per_cycle::overflows            0      0.00%    100.00% # Number of insts issued each cycle
system.cpu.iq.issued_per_cycle::min_value            0                       # Number of insts issued each cycle
system.cpu.iq.issued_per_cycle::max_value            8                       # Number of insts issued each cycle
system.cpu.iq.issued_per_cycle::total         6943918                       # Number of insts issued each cycle
system.cpu.iq.rate                           3.194598                       # Inst issue rate
system.cpu.iq.vec_alu_accesses                      0                       # Number of vector alu accesses
system.cpu.iq.vec_inst_queue_reads                  0                       # Number of vector instruction queue reads
system.cpu.iq.vec_inst_queue_wakeup_accesses            0                       # Number of vector instruction queue wakeup accesses
system.cpu.iq.vec_inst_queue_writes                 0                       # Number of vector instruction queue writes
system.cpu.itb.rdAccesses                           0                       # TLB accesses on read requests
system.cpu.itb.rdMisses                             0                       # TLB misses on read requests
system.cpu.itb.wrAccesses                     1642616                       # TLB accesses on write requests
system.cpu.itb.wrMisses                            47                       # TLB misses on write requests
system.cpu.memDep0.conflictingLoads           2097048                       # Number of conflicting loads.
system.cpu.memDep0.conflictingStores          2086193                       # Number of conflicting stores.
system.cpu.memDep0.insertedLoads              4527048                       # Number of loads inserted to the mem dependence unit.
system.cpu.memDep0.insertedStores             2100289                       # Number of stores inserted to the mem dependence unit.
system.cpu.misc_regfile_reads                 7326246                       # number of misc regfile reads
system.cpu.misc_regfile_writes                      1                       # number of misc regfile writes
system.cpu.numCycles                          6956846                       # number of cpu cycles simulated
system.cpu.numWorkItemsCompleted                    0                       # number of work items this cpu completed
system.cpu.numWorkItemsStarted                      0                       # number of work items this cpu started
system.cpu.rename.BlockCycles                   88450                       # Number of cycles rename is blocking
system.cpu.rename.CommittedMaps              21379131                       # Number of HB maps that are committed
system.cpu.rename.IQFullEvents                 317575                       # Number of times rename has blocked due to IQ full
system.cpu.rename.IdleCycles                  1053632                       # Number of cycles rename is idle
system.cpu.rename.LQFullEvents                2900094                       # Number of times rename has blocked due to LQ full
system.cpu.rename.ROBFullEvents                   422                       # Number of times rename has blocked due to ROB full
system.cpu.rename.RenameLookups              48013590                       # Number of register rename lookups that rename has made
system.cpu.rename.RenamedInsts               22133611                       # Number of instructions processed by rename
system.cpu.rename.RenamedOperands            21414477                       # Number of destination operands rename has renamed
system.cpu.rename.RunCycles                   2344200                       # Number of cycles rename is running
system.cpu.rename.SQFullEvents                   2559                       # Number of times rename has blocked due to SQ full
system.cpu.rename.SquashCycles                    944                       # Number of cycles rename is squashing
system.cpu.rename.UnblockCycles               3455891                       # Number of cycles rename is unblocking
system.cpu.rename.UndoneMaps                    35346                       # Number of HB maps that are undone due to squashing
system.cpu.rename.fp_rename_lookups          14688885                       # Number of floating rename lookups
system.cpu.rename.int_rename_lookups         24610145                       # Number of integer rename lookups
system.cpu.rename.serializeStallCycles            801                       # count of cycles rename stalled for serializing inst
system.cpu.rename.serializingInsts                 21                       # count of serializing insts renamed
system.cpu.rename.skidInsts                   6712597                       # count of insts added to the skid buffer
system.cpu.rename.tempSerializingInsts             16                       # count of temporary serializing insts renamed
system.cpu.rob.rob_reads                     27035531                       # The number of ROB reads
system.cpu.rob.rob_writes                    44253890                       # The number of ROB writes
system.cpu.timesIdled                             188                       # Number of times that the entire CPU went into an idle state and unscheduled itself
system.cpu.workload.numSyscalls                     7                       # Number of system calls
system.l2bus.snoop_filter.hit_multi_requests            1                       # Number of requests hitting in the snoop filter with multiple (>1) holders of the requested data.
system.l2bus.snoop_filter.hit_multi_snoops            0                       # Number of snoops hitting in the snoop filter with multiple (>1) holders of the requested data.
system.l2bus.snoop_filter.hit_single_requests         7881                       # Number of requests hitting in the snoop filter with a single holder of the requested data.
system.l2bus.snoop_filter.hit_single_snoops            0                       # Number of snoops hitting in the snoop filter with a single holder of the requested data.
system.l2bus.snoop_filter.tot_requests          18134                       # Total number of requests made to the snoop filter.
system.l2bus.snoop_filter.tot_snoops                0                       # Total number of snoops made to the snoop filter.
system.membus.snoop_filter.hit_multi_requests            0                       # Number of requests hitting in the snoop filter with multiple (>1) holders of the requested data.
system.membus.snoop_filter.hit_multi_snoops            0                       # Number of snoops hitting in the snoop filter with multiple (>1) holders of the requested data.
system.membus.snoop_filter.hit_single_requests            0                       # Number of requests hitting in the snoop filter with a single holder of the requested data.
system.membus.snoop_filter.hit_single_snoops            0                       # Number of snoops hitting in the snoop filter with a single holder of the requested data.
system.membus.snoop_filter.tot_requests          3568                       # Total number of requests made to the snoop filter.
system.membus.snoop_filter.tot_snoops               0                       # Total number of snoops made to the snoop filter.
system.membus.pwrStateResidencyTicks::UNDEFINED   6956845000                       # Cumulative time (in ticks) in various power states
system.membus.trans_dist::ReadResp               3477                       # Transaction distribution
system.membus.trans_dist::ReadExReq                91                       # Transaction distribution
system.membus.trans_dist::ReadExResp               91                       # Transaction distribution
system.membus.trans_dist::ReadSharedReq          3477                       # Transaction distribution
system.membus.pkt_count_system.l2cache.mem_side::system.mem_ctrl.port         7136                       # Packet count per connected master and slave (bytes)
system.membus.pkt_count_system.l2cache.mem_side::total         7136                       # Packet count per connected master and slave (bytes)
system.membus.pkt_count::total                   7136                       # Packet count per connected master and slave (bytes)
system.membus.pkt_size_system.l2cache.mem_side::system.mem_ctrl.port       228352                       # Cumulative packet size per connected master and slave (bytes)
system.membus.pkt_size_system.l2cache.mem_side::total       228352                       # Cumulative packet size per connected master and slave (bytes)
system.membus.pkt_size::total                  228352                       # Cumulative packet size per connected master and slave (bytes)
system.membus.snoops                                0                       # Total snoops (count)
system.membus.snoopTraffic                          0                       # Total snoop traffic (bytes)
system.membus.snoop_fanout::samples              3568                       # Request fanout histogram
system.membus.snoop_fanout::mean                    0                       # Request fanout histogram
system.membus.snoop_fanout::stdev                   0                       # Request fanout histogram
system.membus.snoop_fanout::underflows              0      0.00%      0.00% # Request fanout histogram
system.membus.snoop_fanout::0                    3568    100.00%    100.00% # Request fanout histogram
system.membus.snoop_fanout::1                       0      0.00%    100.00% # Request fanout histogram
system.membus.snoop_fanout::overflows               0      0.00%    100.00% # Request fanout histogram
system.membus.snoop_fanout::min_value               0                       # Request fanout histogram
system.membus.snoop_fanout::max_value               0                       # Request fanout histogram
system.membus.snoop_fanout::total                3568                       # Request fanout histogram
system.membus.reqLayer2.occupancy             3568000                       # Layer occupancy (ticks)
system.membus.reqLayer2.utilization               0.1                       # Layer utilization (%)
system.membus.respLayer0.occupancy           18842250                       # Layer occupancy (ticks)
system.membus.respLayer0.utilization              0.3                       # Layer utilization (%)
system.l2bus.pwrStateResidencyTicks::UNDEFINED   6956845000                       # Cumulative time (in ticks) in various power states
system.l2bus.trans_dist::ReadResp               10145                       # Transaction distribution
system.l2bus.trans_dist::WritebackDirty           442                       # Transaction distribution
system.l2bus.trans_dist::CleanEvict              7439                       # Transaction distribution
system.l2bus.trans_dist::ReadExReq                107                       # Transaction distribution
system.l2bus.trans_dist::ReadExResp               107                       # Transaction distribution
system.l2bus.trans_dist::ReadSharedReq          10146                       # Transaction distribution
system.l2bus.pkt_count_system.cpu.icache.mem_side::system.l2cache.cpu_side          647                       # Packet count per connected master and slave (bytes)
system.l2bus.pkt_count_system.cpu.dcache.mem_side::system.l2cache.cpu_side        27739                       # Packet count per connected master and slave (bytes)
system.l2bus.pkt_count::total                   28386                       # Packet count per connected master and slave (bytes)
system.l2bus.pkt_size_system.cpu.icache.mem_side::system.l2cache.cpu_side        20672                       # Cumulative packet size per connected master and slave (bytes)
system.l2bus.pkt_size_system.cpu.dcache.mem_side::system.l2cache.cpu_side       663744                       # Cumulative packet size per connected master and slave (bytes)
system.l2bus.pkt_size::total                   684416                       # Cumulative packet size per connected master and slave (bytes)
system.l2bus.snoops                                 0                       # Total snoops (count)
system.l2bus.snoopTraffic                           0                       # Total snoop traffic (bytes)
system.l2bus.snoop_fanout::samples              10253                       # Request fanout histogram
system.l2bus.snoop_fanout::mean              0.000098                       # Request fanout histogram
system.l2bus.snoop_fanout::stdev             0.009876                       # Request fanout histogram
system.l2bus.snoop_fanout::underflows               0      0.00%      0.00% # Request fanout histogram
system.l2bus.snoop_fanout::0                    10252     99.99%     99.99% # Request fanout histogram
system.l2bus.snoop_fanout::1                        1      0.01%    100.00% # Request fanout histogram
system.l2bus.snoop_fanout::2                        0      0.00%    100.00% # Request fanout histogram
system.l2bus.snoop_fanout::overflows                0      0.00%    100.00% # Request fanout histogram
system.l2bus.snoop_fanout::min_value                0                       # Request fanout histogram
system.l2bus.snoop_fanout::max_value                1                       # Request fanout histogram
system.l2bus.snoop_fanout::total                10253                       # Request fanout histogram
system.l2bus.respLayer1.occupancy            29787000                       # Layer occupancy (ticks)
system.l2bus.respLayer1.utilization               0.4                       # Layer utilization (%)
system.l2bus.reqLayer0.occupancy             19018000                       # Layer occupancy (ticks)
system.l2bus.reqLayer0.utilization                0.3                       # Layer utilization (%)
system.l2bus.respLayer0.occupancy              969000                       # Layer occupancy (ticks)
system.l2bus.respLayer0.utilization               0.0                       # Layer utilization (%)
system.clk_domain.clock                          1000                       # Clock period in ticks
system.clk_domain.voltage_domain.voltage            1                       # Voltage in Volts
system.cpu.pwrStateResidencyTicks::ON      6956845000                       # Cumulative time (in ticks) in various power states
system.cpu.icache.pwrStateResidencyTicks::UNDEFINED   6956845000                       # Cumulative time (in ticks) in various power states
system.cpu.icache.demand_hits::.cpu.inst      1642174                       # number of demand (read+write) hits
system.cpu.icache.demand_hits::total          1642174                       # number of demand (read+write) hits
system.cpu.icache.overall_hits::.cpu.inst      1642174                       # number of overall hits
system.cpu.icache.overall_hits::total         1642174                       # number of overall hits
system.cpu.icache.demand_misses::.cpu.inst          427                       # number of demand (read+write) misses
system.cpu.icache.demand_misses::total            427                       # number of demand (read+write) misses
system.cpu.icache.overall_misses::.cpu.inst          427                       # number of overall misses
system.cpu.icache.overall_misses::total           427                       # number of overall misses
system.cpu.icache.demand_miss_latency::.cpu.inst     40736000                       # number of demand (read+write) miss cycles
system.cpu.icache.demand_miss_latency::total     40736000                       # number of demand (read+write) miss cycles
system.cpu.icache.overall_miss_latency::.cpu.inst     40736000                       # number of overall miss cycles
system.cpu.icache.overall_miss_latency::total     40736000                       # number of overall miss cycles
system.cpu.icache.demand_accesses::.cpu.inst      1642601                       # number of demand (read+write) accesses
system.cpu.icache.demand_accesses::total      1642601                       # number of demand (read+write) accesses
system.cpu.icache.overall_accesses::.cpu.inst      1642601                       # number of overall (read+write) accesses
system.cpu.icache.overall_accesses::total      1642601                       # number of overall (read+write) accesses
system.cpu.icache.demand_miss_rate::.cpu.inst     0.000260                       # miss rate for demand accesses
system.cpu.icache.demand_miss_rate::total     0.000260                       # miss rate for demand accesses
system.cpu.icache.overall_miss_rate::.cpu.inst     0.000260                       # miss rate for overall accesses
system.cpu.icache.overall_miss_rate::total     0.000260                       # miss rate for overall accesses
system.cpu.icache.demand_avg_miss_latency::.cpu.inst 95400.468384                       # average overall miss latency
system.cpu.icache.demand_avg_miss_latency::total 95400.468384                       # average overall miss latency
system.cpu.icache.overall_avg_miss_latency::.cpu.inst 95400.468384                       # average overall miss latency
system.cpu.icache.overall_avg_miss_latency::total 95400.468384                       # average overall miss latency
system.cpu.icache.blocked_cycles::no_mshrs           60                       # number of cycles access was blocked
system.cpu.icache.blocked_cycles::no_targets            0                       # number of cycles access was blocked
system.cpu.icache.blocked::no_mshrs                 2                       # number of cycles access was blocked
system.cpu.icache.blocked::no_targets               0                       # number of cycles access was blocked
system.cpu.icache.avg_blocked_cycles::no_mshrs           30                       # average number of cycles each access was blocked
system.cpu.icache.avg_blocked_cycles::no_targets          nan                       # average number of cycles each access was blocked
system.cpu.icache.demand_mshr_hits::.cpu.inst          103                       # number of demand (read+write) MSHR hits
system.cpu.icache.demand_mshr_hits::total          103                       # number of demand (read+write) MSHR hits
system.cpu.icache.overall_mshr_hits::.cpu.inst          103                       # number of overall MSHR hits
system.cpu.icache.overall_mshr_hits::total          103                       # number of overall MSHR hits
system.cpu.icache.demand_mshr_misses::.cpu.inst          324                       # number of demand (read+write) MSHR misses
system.cpu.icache.demand_mshr_misses::total          324                       # number of demand (read+write) MSHR misses
system.cpu.icache.overall_mshr_misses::.cpu.inst          324                       # number of overall MSHR misses
system.cpu.icache.overall_mshr_misses::total          324                       # number of overall MSHR misses
system.cpu.icache.demand_mshr_miss_latency::.cpu.inst     32784000                       # number of demand (read+write) MSHR miss cycles
system.cpu.icache.demand_mshr_miss_latency::total     32784000                       # number of demand (read+write) MSHR miss cycles
system.cpu.icache.overall_mshr_miss_latency::.cpu.inst     32784000                       # number of overall MSHR miss cycles
system.cpu.icache.overall_mshr_miss_latency::total     32784000                       # number of overall MSHR miss cycles
system.cpu.icache.demand_mshr_miss_rate::.cpu.inst     0.000197                       # mshr miss rate for demand accesses
system.cpu.icache.demand_mshr_miss_rate::total     0.000197                       # mshr miss rate for demand accesses
system.cpu.icache.overall_mshr_miss_rate::.cpu.inst     0.000197                       # mshr miss rate for overall accesses
system.cpu.icache.overall_mshr_miss_rate::total     0.000197                       # mshr miss rate for overall accesses
system.cpu.icache.demand_avg_mshr_miss_latency::.cpu.inst 101185.185185                       # average overall mshr miss latency
system.cpu.icache.demand_avg_mshr_miss_latency::total 101185.185185                       # average overall mshr miss latency
system.cpu.icache.overall_avg_mshr_miss_latency::.cpu.inst 101185.185185                       # average overall mshr miss latency
system.cpu.icache.overall_avg_mshr_miss_latency::total 101185.185185                       # average overall mshr miss latency
system.cpu.icache.replacements                      0                       # number of replacements
system.cpu.icache.ReadReq_hits::.cpu.inst      1642174                       # number of ReadReq hits
system.cpu.icache.ReadReq_hits::total         1642174                       # number of ReadReq hits
system.cpu.icache.ReadReq_misses::.cpu.inst          427                       # number of ReadReq misses
system.cpu.icache.ReadReq_misses::total           427                       # number of ReadReq misses
system.cpu.icache.ReadReq_miss_latency::.cpu.inst     40736000                       # number of ReadReq miss cycles
system.cpu.icache.ReadReq_miss_latency::total     40736000                       # number of ReadReq miss cycles
system.cpu.icache.ReadReq_accesses::.cpu.inst      1642601                       # number of ReadReq accesses(hits+misses)
system.cpu.icache.ReadReq_accesses::total      1642601                       # number of ReadReq accesses(hits+misses)
system.cpu.icache.ReadReq_miss_rate::.cpu.inst     0.000260                       # miss rate for ReadReq accesses
system.cpu.icache.ReadReq_miss_rate::total     0.000260                       # miss rate for ReadReq accesses
system.cpu.icache.ReadReq_avg_miss_latency::.cpu.inst 95400.468384                       # average ReadReq miss latency
system.cpu.icache.ReadReq_avg_miss_latency::total 95400.468384                       # average ReadReq miss latency
system.cpu.icache.ReadReq_mshr_hits::.cpu.inst          103                       # number of ReadReq MSHR hits
system.cpu.icache.ReadReq_mshr_hits::total          103                       # number of ReadReq MSHR hits
system.cpu.icache.ReadReq_mshr_misses::.cpu.inst          324                       # number of ReadReq MSHR misses
system.cpu.icache.ReadReq_mshr_misses::total          324                       # number of ReadReq MSHR misses
system.cpu.icache.ReadReq_mshr_miss_latency::.cpu.inst     32784000                       # number of ReadReq MSHR miss cycles
system.cpu.icache.ReadReq_mshr_miss_latency::total     32784000                       # number of ReadReq MSHR miss cycles
system.cpu.icache.ReadReq_mshr_miss_rate::.cpu.inst     0.000197                       # mshr miss rate for ReadReq accesses
system.cpu.icache.ReadReq_mshr_miss_rate::total     0.000197                       # mshr miss rate for ReadReq accesses
system.cpu.icache.ReadReq_avg_mshr_miss_latency::.cpu.inst 101185.185185                       # average ReadReq mshr miss latency
system.cpu.icache.ReadReq_avg_mshr_miss_latency::total 101185.185185                       # average ReadReq mshr miss latency
system.cpu.icache.tags.pwrStateResidencyTicks::UNDEFINED   6956845000                       # Cumulative time (in ticks) in various power states
system.cpu.icache.tags.tagsinuse           299.309712                       # Cycle average of tags in use
system.cpu.icache.tags.total_refs             1642497                       # Total number of references to valid blocks.
system.cpu.icache.tags.sampled_refs               323                       # Sample count of references to valid blocks.
system.cpu.icache.tags.avg_refs           5085.130031                       # Average number of references to valid blocks.
system.cpu.icache.tags.warmup_cycle            107000                       # Cycle when the warmup percentage was hit.
system.cpu.icache.tags.occ_blocks::.cpu.inst   299.309712                       # Average occupied blocks per requestor
system.cpu.icache.tags.occ_percent::.cpu.inst     0.146147                       # Average percentage of cache occupancy
system.cpu.icache.tags.occ_percent::total     0.146147                       # Average percentage of cache occupancy
system.cpu.icache.tags.occ_task_id_blocks::1024          323                       # Occupied blocks per task id
system.cpu.icache.tags.age_task_id_blocks_1024::0           23                       # Occupied blocks per task id
system.cpu.icache.tags.age_task_id_blocks_1024::3          300                       # Occupied blocks per task id
system.cpu.icache.tags.occ_task_id_percent::1024     0.157715                       # Percentage of cache occupancy per task id
system.cpu.icache.tags.tag_accesses           3285525                       # Number of tag accesses
system.cpu.icache.tags.data_accesses          3285525                       # Number of data accesses
system.cpu.dtb.walker.pwrStateResidencyTicks::UNDEFINED   6956845000                       # Cumulative time (in ticks) in various power states
system.cpu.interrupts.clk_domain.clock          16000                       # Clock period in ticks
system.cpu.itb.walker.pwrStateResidencyTicks::UNDEFINED   6956845000                       # Cumulative time (in ticks) in various power states
system.cpu.dcache.pwrStateResidencyTicks::UNDEFINED   6956845000                       # Cumulative time (in ticks) in various power states
system.cpu.dcache.demand_hits::.cpu.data      6856076                       # number of demand (read+write) hits
system.cpu.dcache.demand_hits::total          6856076                       # number of demand (read+write) hits
system.cpu.dcache.overall_hits::.cpu.data      6856076                       # number of overall hits
system.cpu.dcache.overall_hits::total         6856076                       # number of overall hits
system.cpu.dcache.demand_misses::.cpu.data        29501                       # number of demand (read+write) misses
system.cpu.dcache.demand_misses::total          29501                       # number of demand (read+write) misses
system.cpu.dcache.overall_misses::.cpu.data        29501                       # number of overall misses
system.cpu.dcache.overall_misses::total         29501                       # number of overall misses
system.cpu.dcache.demand_miss_latency::.cpu.data   1008466999                       # number of demand (read+write) miss cycles
system.cpu.dcache.demand_miss_latency::total   1008466999                       # number of demand (read+write) miss cycles
system.cpu.dcache.overall_miss_latency::.cpu.data   1008466999                       # number of overall miss cycles
system.cpu.dcache.overall_miss_latency::total   1008466999                       # number of overall miss cycles
system.cpu.dcache.demand_accesses::.cpu.data      6885577                       # number of demand (read+write) accesses
system.cpu.dcache.demand_accesses::total      6885577                       # number of demand (read+write) accesses
system.cpu.dcache.overall_accesses::.cpu.data      6885577                       # number of overall (read+write) accesses
system.cpu.dcache.overall_accesses::total      6885577                       # number of overall (read+write) accesses
system.cpu.dcache.demand_miss_rate::.cpu.data     0.004284                       # miss rate for demand accesses
system.cpu.dcache.demand_miss_rate::total     0.004284                       # miss rate for demand accesses
system.cpu.dcache.overall_miss_rate::.cpu.data     0.004284                       # miss rate for overall accesses
system.cpu.dcache.overall_miss_rate::total     0.004284                       # miss rate for overall accesses
system.cpu.dcache.demand_avg_miss_latency::.cpu.data 34184.163215                       # average overall miss latency
system.cpu.dcache.demand_avg_miss_latency::total 34184.163215                       # average overall miss latency
system.cpu.dcache.overall_avg_miss_latency::.cpu.data 34184.163215                       # average overall miss latency
system.cpu.dcache.overall_avg_miss_latency::total 34184.163215                       # average overall miss latency
system.cpu.dcache.blocked_cycles::no_mshrs          782                       # number of cycles access was blocked
system.cpu.dcache.blocked_cycles::no_targets            0                       # number of cycles access was blocked
system.cpu.dcache.blocked::no_mshrs                86                       # number of cycles access was blocked
system.cpu.dcache.blocked::no_targets               0                       # number of cycles access was blocked
system.cpu.dcache.avg_blocked_cycles::no_mshrs     9.093023                       # average number of cycles each access was blocked
system.cpu.dcache.avg_blocked_cycles::no_targets          nan                       # average number of cycles each access was blocked
system.cpu.dcache.writebacks::.writebacks          442                       # number of writebacks
system.cpu.dcache.writebacks::total               442                       # number of writebacks
system.cpu.dcache.demand_mshr_hits::.cpu.data        19572                       # number of demand (read+write) MSHR hits
system.cpu.dcache.demand_mshr_hits::total        19572                       # number of demand (read+write) MSHR hits
system.cpu.dcache.overall_mshr_hits::.cpu.data        19572                       # number of overall MSHR hits
system.cpu.dcache.overall_mshr_hits::total        19572                       # number of overall MSHR hits
system.cpu.dcache.demand_mshr_misses::.cpu.data         9929                       # number of demand (read+write) MSHR misses
system.cpu.dcache.demand_mshr_misses::total         9929                       # number of demand (read+write) MSHR misses
system.cpu.dcache.overall_mshr_misses::.cpu.data         9929                       # number of overall MSHR misses
system.cpu.dcache.overall_mshr_misses::total         9929                       # number of overall MSHR misses
system.cpu.dcache.demand_mshr_miss_latency::.cpu.data    492679999                       # number of demand (read+write) MSHR miss cycles
system.cpu.dcache.demand_mshr_miss_latency::total    492679999                       # number of demand (read+write) MSHR miss cycles
system.cpu.dcache.overall_mshr_miss_latency::.cpu.data    492679999                       # number of overall MSHR miss cycles
system.cpu.dcache.overall_mshr_miss_latency::total    492679999                       # number of overall MSHR miss cycles
system.cpu.dcache.demand_mshr_miss_rate::.cpu.data     0.001442                       # mshr miss rate for demand accesses
system.cpu.dcache.demand_mshr_miss_rate::total     0.001442                       # mshr miss rate for demand accesses
system.cpu.dcache.overall_mshr_miss_rate::.cpu.data     0.001442                       # mshr miss rate for overall accesses
system.cpu.dcache.overall_mshr_miss_rate::total     0.001442                       # mshr miss rate for overall accesses
system.cpu.dcache.demand_avg_mshr_miss_latency::.cpu.data 49620.304059                       # average overall mshr miss latency
system.cpu.dcache.demand_avg_mshr_miss_latency::total 49620.304059                       # average overall mshr miss latency
system.cpu.dcache.overall_avg_mshr_miss_latency::.cpu.data 49620.304059                       # average overall mshr miss latency
system.cpu.dcache.overall_avg_mshr_miss_latency::total 49620.304059                       # average overall mshr miss latency
system.cpu.dcache.replacements                   7881                       # number of replacements
system.cpu.dcache.ReadReq_hits::.cpu.data      4757722                       # number of ReadReq hits
system.cpu.dcache.ReadReq_hits::total         4757722                       # number of ReadReq hits
system.cpu.dcache.ReadReq_misses::.cpu.data        29358                       # number of ReadReq misses
system.cpu.dcache.ReadReq_misses::total         29358                       # number of ReadReq misses
system.cpu.dcache.ReadReq_miss_latency::.cpu.data    995979000                       # number of ReadReq miss cycles
system.cpu.dcache.ReadReq_miss_latency::total    995979000                       # number of ReadReq miss cycles
system.cpu.dcache.ReadReq_accesses::.cpu.data      4787080                       # number of ReadReq accesses(hits+misses)
system.cpu.dcache.ReadReq_accesses::total      4787080                       # number of ReadReq accesses(hits+misses)
system.cpu.dcache.ReadReq_miss_rate::.cpu.data     0.006133                       # miss rate for ReadReq accesses
system.cpu.dcache.ReadReq_miss_rate::total     0.006133                       # miss rate for ReadReq accesses
system.cpu.dcache.ReadReq_avg_miss_latency::.cpu.data 33925.301451                       # average ReadReq miss latency
system.cpu.dcache.ReadReq_avg_miss_latency::total 33925.301451                       # average ReadReq miss latency
system.cpu.dcache.ReadReq_mshr_hits::.cpu.data        19526                       # number of ReadReq MSHR hits
system.cpu.dcache.ReadReq_mshr_hits::total        19526                       # number of ReadReq MSHR hits
system.cpu.dcache.ReadReq_mshr_misses::.cpu.data         9832                       # number of ReadReq MSHR misses
system.cpu.dcache.ReadReq_mshr_misses::total         9832                       # number of ReadReq MSHR misses
system.cpu.dcache.ReadReq_mshr_miss_latency::.cpu.data    483007000                       # number of ReadReq MSHR miss cycles
system.cpu.dcache.ReadReq_mshr_miss_latency::total    483007000                       # number of ReadReq MSHR miss cycles
system.cpu.dcache.ReadReq_mshr_miss_rate::.cpu.data     0.002054                       # mshr miss rate for ReadReq accesses
system.cpu.dcache.ReadReq_mshr_miss_rate::total     0.002054                       # mshr miss rate for ReadReq accesses
system.cpu.dcache.ReadReq_avg_mshr_miss_latency::.cpu.data 49126.017087                       # average ReadReq mshr miss latency
system.cpu.dcache.ReadReq_avg_mshr_miss_latency::total 49126.017087                       # average ReadReq mshr miss latency
system.cpu.dcache.WriteReq_hits::.cpu.data      2098354                       # number of WriteReq hits
system.cpu.dcache.WriteReq_hits::total        2098354                       # number of WriteReq hits
system.cpu.dcache.WriteReq_misses::.cpu.data          143                       # number of WriteReq misses
system.cpu.dcache.WriteReq_misses::total          143                       # number of WriteReq misses
system.cpu.dcache.WriteReq_miss_latency::.cpu.data     12487999                       # number of WriteReq miss cycles
system.cpu.dcache.WriteReq_miss_latency::total     12487999                       # number of WriteReq miss cycles
system.cpu.dcache.WriteReq_accesses::.cpu.data      2098497                       # number of WriteReq accesses(hits+misses)
system.cpu.dcache.WriteReq_accesses::total      2098497                       # number of WriteReq accesses(hits+misses)
system.cpu.dcache.WriteReq_miss_rate::.cpu.data     0.000068                       # miss rate for WriteReq accesses
system.cpu.dcache.WriteReq_miss_rate::total     0.000068                       # miss rate for WriteReq accesses
system.cpu.dcache.WriteReq_avg_miss_latency::.cpu.data 87328.664336                       # average WriteReq miss latency
system.cpu.dcache.WriteReq_avg_miss_latency::total 87328.664336                       # average WriteReq miss latency
system.cpu.dcache.WriteReq_mshr_hits::.cpu.data           46                       # number of WriteReq MSHR hits
system.cpu.dcache.WriteReq_mshr_hits::total           46                       # number of WriteReq MSHR hits
system.cpu.dcache.WriteReq_mshr_misses::.cpu.data           97                       # number of WriteReq MSHR misses
system.cpu.dcache.WriteReq_mshr_misses::total           97                       # number of WriteReq MSHR misses
system.cpu.dcache.WriteReq_mshr_miss_latency::.cpu.data      9672999                       # number of WriteReq MSHR miss cycles
system.cpu.dcache.WriteReq_mshr_miss_latency::total      9672999                       # number of WriteReq MSHR miss cycles
system.cpu.dcache.WriteReq_mshr_miss_rate::.cpu.data     0.000046                       # mshr miss rate for WriteReq accesses
system.cpu.dcache.WriteReq_mshr_miss_rate::total     0.000046                       # mshr miss rate for WriteReq accesses
system.cpu.dcache.WriteReq_avg_mshr_miss_latency::.cpu.data 99721.639175                       # average WriteReq mshr miss latency
system.cpu.dcache.WriteReq_avg_mshr_miss_latency::total 99721.639175                       # average WriteReq mshr miss latency
system.cpu.dcache.tags.pwrStateResidencyTicks::UNDEFINED   6956845000                       # Cumulative time (in ticks) in various power states
system.cpu.dcache.tags.tagsinuse          1662.296474                       # Cycle average of tags in use
system.cpu.dcache.tags.total_refs             6866005                       # Total number of references to valid blocks.
system.cpu.dcache.tags.sampled_refs              9929                       # Sample count of references to valid blocks.
system.cpu.dcache.tags.avg_refs            691.510223                       # Average number of references to valid blocks.
system.cpu.dcache.tags.warmup_cycle            222000                       # Cycle when the warmup percentage was hit.
system.cpu.dcache.tags.occ_blocks::.cpu.data  1662.296474                       # Average occupied blocks per requestor
system.cpu.dcache.tags.occ_percent::.cpu.data     0.811668                       # Average percentage of cache occupancy
system.cpu.dcache.tags.occ_percent::total     0.811668                       # Average percentage of cache occupancy
system.cpu.dcache.tags.occ_task_id_blocks::1024         2048                       # Occupied blocks per task id
system.cpu.dcache.tags.age_task_id_blocks_1024::0           46                       # Occupied blocks per task id
system.cpu.dcache.tags.age_task_id_blocks_1024::1          141                       # Occupied blocks per task id
system.cpu.dcache.tags.age_task_id_blocks_1024::2          302                       # Occupied blocks per task id
system.cpu.dcache.tags.age_task_id_blocks_1024::3         1559                       # Occupied blocks per task id
system.cpu.dcache.tags.occ_task_id_percent::1024            1                       # Percentage of cache occupancy per task id
system.cpu.dcache.tags.tag_accesses          13781083                       # Number of tag accesses
system.cpu.dcache.tags.data_accesses         13781083                       # Number of data accesses
system.l2cache.pwrStateResidencyTicks::UNDEFINED   6956845000                       # Cumulative time (in ticks) in various power states
system.l2cache.demand_hits::.cpu.inst               1                       # number of demand (read+write) hits
system.l2cache.demand_hits::.cpu.data            6683                       # number of demand (read+write) hits
system.l2cache.demand_hits::total                6684                       # number of demand (read+write) hits
system.l2cache.overall_hits::.cpu.inst              1                       # number of overall hits
system.l2cache.overall_hits::.cpu.data           6683                       # number of overall hits
system.l2cache.overall_hits::total               6684                       # number of overall hits
system.l2cache.demand_misses::.cpu.inst           323                       # number of demand (read+write) misses
system.l2cache.demand_misses::.cpu.data          3246                       # number of demand (read+write) misses
system.l2cache.demand_misses::total              3569                       # number of demand (read+write) misses
system.l2cache.overall_misses::.cpu.inst          323                       # number of overall misses
system.l2cache.overall_misses::.cpu.data         3246                       # number of overall misses
system.l2cache.overall_misses::total             3569                       # number of overall misses
system.l2cache.demand_miss_latency::.cpu.inst     31789000                       # number of demand (read+write) miss cycles
system.l2cache.demand_miss_latency::.cpu.data    315990000                       # number of demand (read+write) miss cycles
system.l2cache.demand_miss_latency::total    347779000                       # number of demand (read+write) miss cycles
system.l2cache.overall_miss_latency::.cpu.inst     31789000                       # number of overall miss cycles
system.l2cache.overall_miss_latency::.cpu.data    315990000                       # number of overall miss cycles
system.l2cache.overall_miss_latency::total    347779000                       # number of overall miss cycles
system.l2cache.demand_accesses::.cpu.inst          324                       # number of demand (read+write) accesses
[...]
system.mem_ctrl.rdQLenPdf::11                       0                       # What read queue length does an incoming req see
system.mem_ctrl.rdQLenPdf::12                       0                       # What read queue length does an incoming req see
system.mem_ctrl.rdQLenPdf::13                       0                       # What read queue length does an incoming req see
system.mem_ctrl.rdQLenPdf::14                       0                       # What read queue length does an incoming req see
system.mem_ctrl.rdQLenPdf::15                       0                       # What read queue length does an incoming req see
system.mem_ctrl.rdQLenPdf::16                       0                       # What read queue length does an incoming req see
system.mem_ctrl.rdQLenPdf::17                       0                       # What read queue length does an incoming req see
system.mem_ctrl.rdQLenPdf::18                       0                       # What read queue length does an incoming req see
system.mem_ctrl.rdQLenPdf::19                       0                       # What read queue length does an incoming req see
system.mem_ctrl.rdQLenPdf::20                       0                       # What read queue length does an incoming req see
system.mem_ctrl.rdQLenPdf::21                       0                       # What read queue length does an incoming req see
system.mem_ctrl.rdQLenPdf::22                       0                       # What read queue length does an incoming req see
system.mem_ctrl.rdQLenPdf::23                       0                       # What read queue length does an incoming req see
system.mem_ctrl.rdQLenPdf::24                       0                       # What read queue length does an incoming req see
system.mem_ctrl.rdQLenPdf::25                       0                       # What read queue length does an incoming req see
system.mem_ctrl.rdQLenPdf::26                       0                       # What read queue length does an incoming req see
system.mem_ctrl.rdQLenPdf::27                       0                       # What read queue length does an incoming req see
system.mem_ctrl.rdQLenPdf::28                       0                       # What read queue length does an incoming req see
system.mem_ctrl.rdQLenPdf::29                       0                       # What read queue length does an incoming req see
system.mem_ctrl.rdQLenPdf::30                       0                       # What read queue length does an incoming req see
system.mem_ctrl.rdQLenPdf::31                       0                       # What read queue length does an incoming req see
system.mem_ctrl.wrQLenPdf::0                        0                       # What write queue length does an incoming req see
system.mem_ctrl.wrQLenPdf::1                        0                       # What write queue length does an incoming req see
system.mem_ctrl.wrQLenPdf::2                        0                       # What write queue length does an incoming req see
system.mem_ctrl.wrQLenPdf::3                        0                       # What write queue length does an incoming req see
system.mem_ctrl.wrQLenPdf::4                        0                       # What write queue length does an incoming req see
system.mem_ctrl.wrQLenPdf::5                        0                       # What write queue length does an incoming req see
system.mem_ctrl.wrQLenPdf::6                        0                       # What write queue length does an incoming req see
system.mem_ctrl.wrQLenPdf::7                        0                       # What write queue length does an incoming req see
system.mem_ctrl.wrQLenPdf::8                        0                       # What write queue length does an incoming req see
system.mem_ctrl.wrQLenPdf::9                        0                       # What write queue length does an incoming req see
system.mem_ctrl.wrQLenPdf::10                       0                       # What write queue length does an incoming req see
system.mem_ctrl.wrQLenPdf::11                       0                       # What write queue length does an incoming req see
system.mem_ctrl.wrQLenPdf::12                       0                       # What write queue length does an incoming req see
system.mem_ctrl.wrQLenPdf::13                       0                       # What write queue length does an incoming req see
system.mem_ctrl.wrQLenPdf::14                       0                       # What write queue length does an incoming req see
system.mem_ctrl.wrQLenPdf::15                       0                       # What write queue length does an incoming req see
system.mem_ctrl.wrQLenPdf::16                       0                       # What write queue length does an incoming req see
system.mem_ctrl.wrQLenPdf::17                       0                       # What write queue length does an incoming req see
system.mem_ctrl.wrQLenPdf::18                       0                       # What write queue length does an incoming req see
system.mem_ctrl.wrQLenPdf::19                       0                       # What write queue length does an incoming req see
system.mem_ctrl.wrQLenPdf::20                       0                       # What write queue length does an incoming req see
system.mem_ctrl.wrQLenPdf::21                       0                       # What write queue length does an incoming req see
system.mem_ctrl.wrQLenPdf::22                       0                       # What write queue length does an incoming req see
system.mem_ctrl.wrQLenPdf::23                       0                       # What write queue length does an incoming req see
system.mem_ctrl.wrQLenPdf::24                       0                       # What write queue length does an incoming req see
system.mem_ctrl.wrQLenPdf::25                       0                       # What write queue length does an incoming req see
system.mem_ctrl.wrQLenPdf::26                       0                       # What write queue length does an incoming req see
system.mem_ctrl.wrQLenPdf::27                       0                       # What write queue length does an incoming req see
system.mem_ctrl.wrQLenPdf::28                       0                       # What write queue length does an incoming req see
system.mem_ctrl.wrQLenPdf::29                       0                       # What write queue length does an incoming req see
system.mem_ctrl.wrQLenPdf::30                       0                       # What write queue length does an incoming req see
system.mem_ctrl.wrQLenPdf::31                       0                       # What write queue length does an incoming req see
system.mem_ctrl.wrQLenPdf::32                       0                       # What write queue length does an incoming req see
system.mem_ctrl.wrQLenPdf::33                       0                       # What write queue length does an incoming req see
system.mem_ctrl.wrQLenPdf::34                       0                       # What write queue length does an incoming req see
system.mem_ctrl.wrQLenPdf::35                       0                       # What write queue length does an incoming req see
system.mem_ctrl.wrQLenPdf::36                       0                       # What write queue length does an incoming req see
system.mem_ctrl.wrQLenPdf::37                       0                       # What write queue length does an incoming req see
system.mem_ctrl.wrQLenPdf::38                       0                       # What write queue length does an incoming req see
system.mem_ctrl.wrQLenPdf::39                       0                       # What write queue length does an incoming req see
system.mem_ctrl.wrQLenPdf::40                       0                       # What write queue length does an incoming req see
system.mem_ctrl.wrQLenPdf::41                       0                       # What write queue length does an incoming req see
system.mem_ctrl.wrQLenPdf::42                       0                       # What write queue length does an incoming req see
system.mem_ctrl.wrQLenPdf::43                       0                       # What write queue length does an incoming req see
system.mem_ctrl.wrQLenPdf::44                       0                       # What write queue length does an incoming req see
system.mem_ctrl.wrQLenPdf::45                       0                       # What write queue length does an incoming req see
system.mem_ctrl.wrQLenPdf::46                       0                       # What write queue length does an incoming req see
system.mem_ctrl.wrQLenPdf::47                       0                       # What write queue length does an incoming req see
system.mem_ctrl.wrQLenPdf::48                       0                       # What write queue length does an incoming req see
system.mem_ctrl.wrQLenPdf::49                       0                       # What write queue length does an incoming req see
system.mem_ctrl.wrQLenPdf::50                       0                       # What write queue length does an incoming req see
system.mem_ctrl.wrQLenPdf::51                       0                       # What write queue length does an incoming req see
system.mem_ctrl.wrQLenPdf::52                       0                       # What write queue length does an incoming req see
system.mem_ctrl.wrQLenPdf::53                       0                       # What write queue length does an incoming req see
system.mem_ctrl.wrQLenPdf::54                       0                       # What write queue length does an incoming req see
system.mem_ctrl.wrQLenPdf::55                       0                       # What write queue length does an incoming req see
system.mem_ctrl.wrQLenPdf::56                       0                       # What write queue length does an incoming req see
system.mem_ctrl.wrQLenPdf::57                       0                       # What write queue length does an incoming req see
system.mem_ctrl.wrQLenPdf::58                       0                       # What write queue length does an incoming req see
system.mem_ctrl.wrQLenPdf::59                       0                       # What write queue length does an incoming req see
system.mem_ctrl.wrQLenPdf::60                       0                       # What write queue length does an incoming req see
system.mem_ctrl.wrQLenPdf::61                       0                       # What write queue length does an incoming req see
system.mem_ctrl.wrQLenPdf::62                       0                       # What write queue length does an incoming req see
system.mem_ctrl.wrQLenPdf::63                       0                       # What write queue length does an incoming req see
system.mem_ctrl.bytesPerActivate::samples          480                       # Bytes accessed per row activation
system.mem_ctrl.bytesPerActivate::mean     471.200000                       # Bytes accessed per row activation
system.mem_ctrl.bytesPerActivate::gmean    329.996494                       # Bytes accessed per row activation
system.mem_ctrl.bytesPerActivate::stdev    321.332341                       # Bytes accessed per row activation
system.mem_ctrl.bytesPerActivate::0-127            99     20.62%     20.62% # Bytes accessed per row activation
system.mem_ctrl.bytesPerActivate::128-255           33      6.88%     27.50% # Bytes accessed per row activation
system.mem_ctrl.bytesPerActivate::256-383           41      8.54%     36.04% # Bytes accessed per row activation
system.mem_ctrl.bytesPerActivate::384-511           71     14.79%     50.83% # Bytes accessed per row activation
system.mem_ctrl.bytesPerActivate::512-639          103     21.46%     72.29% # Bytes accessed per row activation
system.mem_ctrl.bytesPerActivate::640-767           23      4.79%     77.08% # Bytes accessed per row activation
system.mem_ctrl.bytesPerActivate::768-895           24      5.00%     82.08% # Bytes accessed per row activation
system.mem_ctrl.bytesPerActivate::896-1023           21      4.38%     86.46% # Bytes accessed per row activation
system.mem_ctrl.bytesPerActivate::1024-1151           65     13.54%    100.00% # Bytes accessed per row activation
system.mem_ctrl.bytesPerActivate::total           480                       # Bytes accessed per row activation
system.mem_ctrl.bytesReadDRAM                  228352                       # Total number of bytes read from DRAM
system.mem_ctrl.bytesReadWrQ                        0                       # Total number of bytes read from write queue
system.mem_ctrl.bytesWritten                        0                       # Total number of bytes written to DRAM
system.mem_ctrl.bytesReadSys                   228352                       # Total read bytes from the system interface side
system.mem_ctrl.bytesWrittenSys                     0                       # Total written bytes from the system interface side
system.mem_ctrl.avgRdBW                         32.82                       # Average DRAM read bandwidth in MiByte/s
system.mem_ctrl.avgWrBW                          0.00                       # Average achieved write bandwidth in MiByte/s
system.mem_ctrl.avgRdBWSys                      32.82                       # Average system read bandwidth in MiByte/s
system.mem_ctrl.avgWrBWSys                       0.00                       # Average system write bandwidth in MiByte/s
system.mem_ctrl.peakBW                       12800.00                       # Theoretical peak bandwidth in MiByte/s
system.mem_ctrl.busUtil                          0.26                       # Data bus utilization in percentage
system.mem_ctrl.busUtilRead                      0.26                       # Data bus utilization in percentage for reads
system.mem_ctrl.busUtilWrite                     0.00                       # Data bus utilization in percentage for writes
system.mem_ctrl.totGap                     6956710000                       # Total gap between requests
system.mem_ctrl.avgGap                     1949750.56                       # Average gap between requests
system.mem_ctrl.masterReadBytes::.cpu.inst        20608                       # Per-master bytes read from memory
system.mem_ctrl.masterReadBytes::.cpu.data       207744                       # Per-master bytes read from memory
system.mem_ctrl.masterReadRate::.cpu.inst 2962262.347371545620                       # Per-master bytes read from memory rate (Bytes/sec)
system.mem_ctrl.masterReadRate::.cpu.data 29861812.358906947076                       # Per-master bytes read from memory rate (Bytes/sec)
system.mem_ctrl.masterReadAccesses::.cpu.inst          322                       # Per-master read serviced memory accesses
system.mem_ctrl.masterReadAccesses::.cpu.data         3246                       # Per-master read serviced memory accesses
system.mem_ctrl.masterReadTotalLat::.cpu.inst      8822250                       # Per-master read total memory access latency
system.mem_ctrl.masterReadTotalLat::.cpu.data     84596500                       # Per-master read total memory access latency
system.mem_ctrl.masterReadAvgLat::.cpu.inst     27398.29                       # Per-master read average memory access latency
system.mem_ctrl.masterReadAvgLat::.cpu.data     26061.77                       # Per-master read average memory access latency
system.mem_ctrl.pageHitRate                     86.32                       # Row buffer hit rate, read and write combined
system.mem_ctrl.rank1.actEnergy               1256640                       # Energy for activate commands per rank (pJ)
system.mem_ctrl.rank1.preEnergy                648945                       # Energy for precharge commands per rank (pJ)
system.mem_ctrl.rank1.readEnergy              9117780                       # Energy for read commands per rank (pJ)
system.mem_ctrl.rank1.writeEnergy                   0                       # Energy for write commands per rank (pJ)
system.mem_ctrl.rank1.refreshEnergy      548873520.000000                       # Energy for refresh commands per rank (pJ)
system.mem_ctrl.rank1.actBackEnergy         302487600                       # Energy for active background per rank (pJ)
system.mem_ctrl.rank1.preBackEnergy        2416702080                       # Energy for precharge background per rank (pJ)
system.mem_ctrl.rank1.actPowerDownEnergy            0                       # Energy for active power-down per rank (pJ)
system.mem_ctrl.rank1.prePowerDownEnergy            0                       # Energy for precharge power-down per rank (pJ)
system.mem_ctrl.rank1.selfRefreshEnergy             0                       # Energy for self refresh per rank (pJ)
system.mem_ctrl.rank1.totalEnergy          3279086565                       # Total energy per rank (pJ)
system.mem_ctrl.rank1.averagePower         471.346791                       # Core power per rank (mW)
system.mem_ctrl.rank1.totalIdleTime                 0                       # Total Idle time Per DRAM Rank
system.mem_ctrl.rank1.memoryStateTime::IDLE   6280187750                       # Time in different power states
system.mem_ctrl.rank1.memoryStateTime::REF    232180000                       # Time in different power states
system.mem_ctrl.rank1.memoryStateTime::SREF            0                       # Time in different power states
system.mem_ctrl.rank1.memoryStateTime::PRE_PDN            0                       # Time in different power states
system.mem_ctrl.rank1.memoryStateTime::ACT    444477250                       # Time in different power states
system.mem_ctrl.rank1.memoryStateTime::ACT_PDN            0                       # Time in different power states
system.mem_ctrl.rank0.actEnergy               2227680                       # Energy for activate commands per rank (pJ)
system.mem_ctrl.rank0.preEnergy               1172655                       # Energy for precharge commands per rank (pJ)
system.mem_ctrl.rank0.readEnergy             16357740                       # Energy for read commands per rank (pJ)
system.mem_ctrl.rank0.writeEnergy                   0                       # Energy for write commands per rank (pJ)
system.mem_ctrl.rank0.refreshEnergy      548873520.000000                       # Energy for refresh commands per rank (pJ)
system.mem_ctrl.rank0.actBackEnergy         461787210                       # Energy for active background per rank (pJ)
system.mem_ctrl.rank0.preBackEnergy        2282555040                       # Energy for precharge background per rank (pJ)
system.mem_ctrl.rank0.actPowerDownEnergy            0                       # Energy for active power-down per rank (pJ)
system.mem_ctrl.rank0.prePowerDownEnergy            0                       # Energy for precharge power-down per rank (pJ)
system.mem_ctrl.rank0.selfRefreshEnergy             0                       # Energy for self refresh per rank (pJ)
system.mem_ctrl.rank0.totalEnergy          3312973845                       # Total energy per rank (pJ)
system.mem_ctrl.rank0.averagePower         476.217861                       # Core power per rank (mW)
system.mem_ctrl.rank0.totalIdleTime                 0                       # Total Idle time Per DRAM Rank
system.mem_ctrl.rank0.memoryStateTime::IDLE   5929434000                       # Time in different power states
system.mem_ctrl.rank0.memoryStateTime::REF    232180000                       # Time in different power states
system.mem_ctrl.rank0.memoryStateTime::SREF            0                       # Time in different power states
system.mem_ctrl.rank0.memoryStateTime::PRE_PDN            0                       # Time in different power states
system.mem_ctrl.rank0.memoryStateTime::ACT    795231000                       # Time in different power states
system.mem_ctrl.rank0.memoryStateTime::ACT_PDN            0                       # Time in different power states

---------- End Simulation Statistics   ----------
