gem5 Simulator System.  http://gem5.org
gem5 is copyrighted software; use the --copyright option for details.

gem5 compiled Jan 30 2020 11:34:18
gem5 started Jan 30 2020 11:34:46
gem5 executing on tetracosa.cs.ucla.edu, pid 133632
command line: build/X86/gem5.opt --outdir 4_minor_HBM/lfsr simple.py --CPU MinorCPU --memctrl HBM_1000_4H_1x64 --benchmark lfsr

Global frequency set at 1000000000000 ticks per second
warn: DRAM device capacity (256 Mbytes) does not match the address range assigned (512 Mbytes)
0: system.remote_gdb: listening for remote gdb on port 7001
Beginning simulation with parameters Namespace(CPU='MinorCPU', benchmark='lfsr', frequency='1GHz', memctrl='HBM_1000_4H_1x64', nol2=False)
info: Entering event queue @ 0.  Starting simulation...
Done simulating at tick 59226542000 because exiting with last active thread context
gem5 Simulator System.  http://gem5.org
gem5 is copyrighted software; use the --copyright option for details.

gem5 compiled Jan 30 2020 11:34:18
gem5 started Jan 30 2020 11:35:25
gem5 executing on tetracosa.cs.ucla.edu, pid 133728
command line: build/X86/gem5.opt --outdir 4_minor_HBM/merge simple.py --CPU MinorCPU --memctrl HBM_1000_4H_1x64 --benchmark merge

Global frequency set at 1000000000000 ticks per second
warn: DRAM device capacity (256 Mbytes) does not match the address range assigned (512 Mbytes)
0: system.remote_gdb: listening for remote gdb on port 7001
Beginning simulation with parameters Namespace(CPU='MinorCPU', benchmark='merge', frequency='1GHz', memctrl='HBM_1000_4H_1x64', nol2=False)
info: Entering event queue @ 0.  Starting simulation...
Done simulating at tick 6457535000 because exiting with last active thread context
gem5 Simulator System.  http://gem5.org
gem5 is copyrighted software; use the --copyright option for details.

gem5 compiled Jan 30 2020 11:34:18
gem5 started Jan 30 2020 11:35:43
gem5 executing on tetracosa.cs.ucla.edu, pid 133772
command line: build/X86/gem5.opt --outdir 4_minor_HBM/mm simple.py --CPU MinorCPU --memctrl HBM_1000_4H_1x64 --benchmark mm

Global frequency set at 1000000000000 ticks per second
warn: DRAM device capacity (256 Mbytes) does not match the address range assigned (512 Mbytes)
0: system.remote_gdb: listening for remote gdb on port 7001
Beginning simulation with parameters Namespace(CPU='MinorCPU', benchmark='mm', frequency='1GHz', memctrl='HBM_1000_4H_1x64', nol2=False)
info: Entering event queue @ 0.  Starting simulation...
Done simulating at tick 31371862000 because exiting with last active thread context
gem5 Simulator System.  http://gem5.org
gem5 is copyrighted software; use the --copyright option for details.

gem5 compiled Jan 30 2020 11:34:18
gem5 started Jan 30 2020 11:36:58
gem5 executing on tetracosa.cs.ucla.edu, pid 133962
command line: build/X86/gem5.opt --outdir 4_minor_HBM/sieve simple.py --CPU MinorCPU --memctrl HBM_1000_4H_1x64 --benchmark sieve

Global frequency set at 1000000000000 ticks per second
warn: DRAM device capacity (256 Mbytes) does not match the address range assigned (512 Mbytes)
0: system.remote_gdb: listening for remote gdb on port 7001
Beginning simulation with parameters Namespace(CPU='MinorCPU', benchmark='sieve', frequency='1GHz', memctrl='HBM_1000_4H_1x64', nol2=False)
info: Entering event queue @ 0.  Starting simulation...
Done simulating at tick 36135911000 because exiting with last active thread context
gem5 Simulator System.  http://gem5.org
gem5 is copyrighted software; use the --copyright option for details.

gem5 compiled Jan 30 2020 11:34:18
gem5 started Jan 30 2020 11:38:20
gem5 executing on tetracosa.cs.ucla.edu, pid 134152
command line: build/X86/gem5.opt --outdir 4_minor_HBM/spmv simple.py --CPU MinorCPU --memctrl HBM_1000_4H_1x64 --benchmark spmv

Global frequency set at 1000000000000 ticks per second
warn: DRAM device capacity (256 Mbytes) does not match the address range assigned (512 Mbytes)
0: system.remote_gdb: listening for remote gdb on port 7001
Beginning simulation with parameters Namespace(CPU='MinorCPU', benchmark='spmv', frequency='1GHz', memctrl='HBM_1000_4H_1x64', nol2=False)
info: Entering event queue @ 0.  Starting simulation...
info: Increasing stack size by one page.
info: Increasing stack size by one page.
info: Increasing stack size by one page.
info: Increasing stack size by one page.
info: Increasing stack size by one page.
info: Increasing stack size by one page.
info: Increasing stack size by one page.
info: Increasing stack size by one page.
Done simulating at tick 80321201000 because exiting with last active thread context
