
---------- Begin Simulation Statistics ----------
final_tick                                  665083250                       # Number of ticks from beginning of simulation (restored from checkpoints and never reset)
host_inst_rate                                 158533                       # Simulator instruction rate (inst/s)
host_mem_usage                                 793108                       # Number of bytes of host memory used
host_op_rate                                   260597                       # Simulator op (including micro ops) rate (op/s)
host_seconds                                    18.30                       # Real time elapsed on the host
host_tick_rate                               36352843                       # Simulator tick rate (ticks/s)
sim_freq                                 1000000000000                       # Frequency of simulated ticks
sim_insts                                     2900360                       # Number of instructions simulated
sim_ops                                       4767670                       # Number of ops (including micro ops) simulated
sim_seconds                                  0.000665                       # Number of seconds simulated
sim_ticks                                   665083250                       # Number of ticks simulated
system.cpu.branchPred.BTBCorrect                    0                       # Number of correct BTB predictions (this stat may not work properly.
system.cpu.branchPred.BTBHitPct              0.000000                       # BTB Hit Percentage
system.cpu.branchPred.BTBHits                       0                       # Number of BTB hits
system.cpu.branchPred.BTBLookups               653626                       # Number of BTB lookups
system.cpu.branchPred.RASInCorrect                  2                       # Number of incorrect RAS predictions.
system.cpu.branchPred.condIncorrect            108193                       # Number of conditional branches incorrect
system.cpu.branchPred.condPredicted           1035522                       # Number of conditional branches predicted
system.cpu.branchPred.indirectHits             369288                       # Number of indirect target hits.
system.cpu.branchPred.indirectLookups          653626                       # Number of indirect predictor lookups.
system.cpu.branchPred.indirectMisses           284338                       # Number of indirect misses.
system.cpu.branchPred.lookups                 1092936                       # Number of BP lookups
system.cpu.branchPred.usedRAS                   21586                       # Number of times the RAS was used to get a target.
system.cpu.branchPredindirectMispredicted        42357                       # Number of mispredicted indirect branches.
system.cpu.cc_regfile_reads                   3216533                       # number of cc regfile reads
system.cpu.cc_regfile_writes                  2779832                       # number of cc regfile writes
system.cpu.commit.amos                              0                       # Number of atomic instructions committed
system.cpu.commit.branchMispredicts            108267                       # The number of times a branch was mispredicted
system.cpu.commit.branches                     570212                       # Number of branches committed
system.cpu.commit.bw_lim_events                236855                       # number cycles where commit BW limit reached
system.cpu.commit.commitNonSpecStalls               8                       # The number of times commit has been forced to stall to communicate backwards
system.cpu.commit.commitSquashedInsts         2681716                       # The number of squashed insts skipped by commit
system.cpu.commit.committedInsts              2900360                       # Number of instructions committed
system.cpu.commit.committedOps                4767670                       # Number of ops (including micro ops) committed
system.cpu.commit.committed_per_cycle::samples      2235510                       # Number of insts commited each cycle
system.cpu.commit.committed_per_cycle::mean     2.132699                       # Number of insts commited each cycle
system.cpu.commit.committed_per_cycle::stdev     2.856461                       # Number of insts commited each cycle
system.cpu.commit.committed_per_cycle::underflows            0      0.00%      0.00% # Number of insts commited each cycle
system.cpu.commit.committed_per_cycle::0      1075086     48.09%     48.09% # Number of insts commited each cycle
system.cpu.commit.committed_per_cycle::1       325306     14.55%     62.64% # Number of insts commited each cycle
system.cpu.commit.committed_per_cycle::2       132357      5.92%     68.56% # Number of insts commited each cycle
system.cpu.commit.committed_per_cycle::3       134611      6.02%     74.59% # Number of insts commited each cycle
system.cpu.commit.committed_per_cycle::4        95420      4.27%     78.85% # Number of insts commited each cycle
system.cpu.commit.committed_per_cycle::5        49281      2.20%     81.06% # Number of insts commited each cycle
system.cpu.commit.committed_per_cycle::6        55266      2.47%     83.53% # Number of insts commited each cycle
system.cpu.commit.committed_per_cycle::7       131328      5.87%     89.40% # Number of insts commited each cycle
system.cpu.commit.committed_per_cycle::8       236855     10.60%    100.00% # Number of insts commited each cycle
system.cpu.commit.committed_per_cycle::overflows            0      0.00%    100.00% # Number of insts commited each cycle
system.cpu.commit.committed_per_cycle::min_value            0                       # Number of insts commited each cycle
system.cpu.commit.committed_per_cycle::max_value            8                       # Number of insts commited each cycle
system.cpu.commit.committed_per_cycle::total      2235510                       # Number of insts commited each cycle
system.cpu.commit.fp_insts                        288                       # Number of committed floating point instructions.
system.cpu.commit.function_calls                 8278                       # Number of function calls committed.
system.cpu.commit.int_insts                   4751155                       # Number of committed integer instructions.
system.cpu.commit.loads                        420739                       # Number of loads committed
system.cpu.commit.membars                           0                       # Number of memory barriers committed
system.cpu.commit.op_class_0::No_OpClass         8230      0.17%      0.17% # Class of committed instruction
system.cpu.commit.op_class_0::IntAlu          4009724     84.10%     84.28% # Class of committed instruction
system.cpu.commit.op_class_0::IntMult               5      0.00%     84.28% # Class of committed instruction
system.cpu.commit.op_class_0::IntDiv               21      0.00%     84.28% # Class of committed instruction
system.cpu.commit.op_class_0::FloatAdd              2      0.00%     84.28% # Class of committed instruction
system.cpu.commit.op_class_0::FloatCmp              0      0.00%     84.28% # Class of committed instruction
system.cpu.commit.op_class_0::FloatCvt              0      0.00%     84.28% # Class of committed instruction
system.cpu.commit.op_class_0::FloatMult             0      0.00%     84.28% # Class of committed instruction
system.cpu.commit.op_class_0::FloatMultAcc            0      0.00%     84.28% # Class of committed instruction
system.cpu.commit.op_class_0::FloatDiv              0      0.00%     84.28% # Class of committed instruction
system.cpu.commit.op_class_0::FloatMisc             0      0.00%     84.28% # Class of committed instruction
system.cpu.commit.op_class_0::FloatSqrt             0      0.00%     84.28% # Class of committed instruction
system.cpu.commit.op_class_0::SimdAdd               0      0.00%     84.28% # Class of committed instruction
system.cpu.commit.op_class_0::SimdAddAcc            0      0.00%     84.28% # Class of committed instruction
system.cpu.commit.op_class_0::SimdAlu              34      0.00%     84.28% # Class of committed instruction
system.cpu.commit.op_class_0::SimdCmp               0      0.00%     84.28% # Class of committed instruction
system.cpu.commit.op_class_0::SimdCvt              28      0.00%     84.28% # Class of committed instruction
system.cpu.commit.op_class_0::SimdMisc             42      0.00%     84.28% # Class of committed instruction
system.cpu.commit.op_class_0::SimdMult              0      0.00%     84.28% # Class of committed instruction
system.cpu.commit.op_class_0::SimdMultAcc            0      0.00%     84.28% # Class of committed instruction
system.cpu.commit.op_class_0::SimdShift             0      0.00%     84.28% # Class of committed instruction
system.cpu.commit.op_class_0::SimdShiftAcc            0      0.00%     84.28% # Class of committed instruction
system.cpu.commit.op_class_0::SimdDiv               0      0.00%     84.28% # Class of committed instruction
system.cpu.commit.op_class_0::SimdSqrt              0      0.00%     84.28% # Class of committed instruction
system.cpu.commit.op_class_0::SimdFloatAdd            0      0.00%     84.28% # Class of committed instruction
system.cpu.commit.op_class_0::SimdFloatAlu            0      0.00%     84.28% # Class of committed instruction
system.cpu.commit.op_class_0::SimdFloatCmp            0      0.00%     84.28% # Class of committed instruction
system.cpu.commit.op_class_0::SimdFloatCvt            0      0.00%     84.28% # Class of committed instruction
system.cpu.commit.op_class_0::SimdFloatDiv            0      0.00%     84.28% # Class of committed instruction
system.cpu.commit.op_class_0::SimdFloatMisc            0      0.00%     84.28% # Class of committed instruction
system.cpu.commit.op_class_0::SimdFloatMult            0      0.00%     84.28% # Class of committed instruction
system.cpu.commit.op_class_0::SimdFloatMultAcc            0      0.00%     84.28% # Class of committed instruction
system.cpu.commit.op_class_0::SimdFloatSqrt            0      0.00%     84.28% # Class of committed instruction
system.cpu.commit.op_class_0::SimdReduceAdd            0      0.00%     84.28% # Class of committed instruction
system.cpu.commit.op_class_0::SimdReduceAlu            0      0.00%     84.28% # Class of committed instruction
system.cpu.commit.op_class_0::SimdReduceCmp            0      0.00%     84.28% # Class of committed instruction
system.cpu.commit.op_class_0::SimdFloatReduceAdd            0      0.00%     84.28% # Class of committed instruction
system.cpu.commit.op_class_0::SimdFloatReduceCmp            0      0.00%     84.28% # Class of committed instruction
system.cpu.commit.op_class_0::SimdAes               0      0.00%     84.28% # Class of committed instruction
system.cpu.commit.op_class_0::SimdAesMix            0      0.00%     84.28% # Class of committed instruction
system.cpu.commit.op_class_0::SimdSha1Hash            0      0.00%     84.28% # Class of committed instruction
system.cpu.commit.op_class_0::SimdSha1Hash2            0      0.00%     84.28% # Class of committed instruction
system.cpu.commit.op_class_0::SimdSha256Hash            0      0.00%     84.28% # Class of committed instruction
system.cpu.commit.op_class_0::SimdSha256Hash2            0      0.00%     84.28% # Class of committed instruction
system.cpu.commit.op_class_0::SimdShaSigma2            0      0.00%     84.28% # Class of committed instruction
system.cpu.commit.op_class_0::SimdShaSigma3            0      0.00%     84.28% # Class of committed instruction
system.cpu.commit.op_class_0::SimdPredAlu            0      0.00%     84.28% # Class of committed instruction
system.cpu.commit.op_class_0::MemRead          420715      8.82%     93.10% # Class of committed instruction
system.cpu.commit.op_class_0::MemWrite         328693      6.89%    100.00% # Class of committed instruction
system.cpu.commit.op_class_0::FloatMemRead           24      0.00%    100.00% # Class of committed instruction
system.cpu.commit.op_class_0::FloatMemWrite          152      0.00%    100.00% # Class of committed instruction
system.cpu.commit.op_class_0::IprAccess             0      0.00%    100.00% # Class of committed instruction
system.cpu.commit.op_class_0::InstPrefetch            0      0.00%    100.00% # Class of committed instruction
system.cpu.commit.op_class_0::total           4767670                       # Class of committed instruction
system.cpu.commit.refs                         749584                       # Number of memory references committed
system.cpu.commit.swp_count                         0                       # Number of s/w prefetches committed
system.cpu.commit.vec_insts                         0                       # Number of committed Vector instructions.
system.cpu.committedInsts                     2900360                       # Number of Instructions Simulated
system.cpu.committedOps                       4767670                       # Number of Ops (including micro ops) Simulated
system.cpu.cpi                               0.917243                       # CPI: Cycles Per Instruction
system.cpu.cpi_total                         0.917243                       # CPI: Total CPI of All Threads
system.cpu.decode.BlockedCycles                584575                       # Number of cycles decode is blocked
system.cpu.decode.DecodedInsts                9070764                       # Number of instructions handled by decode
system.cpu.decode.IdleCycles                   644365                       # Number of cycles decode is idle
system.cpu.decode.RunCycles                   1114246                       # Number of cycles decode is running
system.cpu.decode.SquashCycles                 108388                       # Number of cycles decode is squashing
system.cpu.decode.UnblockCycles                169556                       # Number of cycles decode is unblocking
system.cpu.dtb.rdAccesses                      521016                       # TLB accesses on read requests
system.cpu.dtb.rdMisses                            65                       # TLB misses on read requests
system.cpu.dtb.wrAccesses                      413574                       # TLB accesses on write requests
system.cpu.dtb.wrMisses                            18                       # TLB misses on write requests
system.cpu.fetch.Branches                     1092936                       # Number of branches that fetch encountered
system.cpu.fetch.CacheLines                    614850                       # Number of cache lines fetched
system.cpu.fetch.Cycles                       1831529                       # Number of cycles fetch has run and was not squashing or blocked
system.cpu.fetch.IcacheSquashes                 31530                       # Number of outstanding Icache misses that were squashed
system.cpu.fetch.Insts                        5952366                       # Number of instructions fetch has processed
system.cpu.fetch.MiscStallCycles                   78                       # Number of cycles fetch has spent waiting on interrupts, or bad addresses, or out of MSHRs
system.cpu.fetch.PendingQuiesceStallCycles            7                       # Number of stall cycles due to pending quiesce instructions
system.cpu.fetch.PendingTrapStallCycles           457                       # Number of stall cycles due to pending traps
system.cpu.fetch.SquashCycles                  216776                       # Number of cycles fetch has spent squashing
system.cpu.fetch.branchRate                  0.410827                       # Number of branch fetches per cycle
system.cpu.fetch.icacheStallCycles             680671                       # Number of cycles fetch is stalled on an Icache miss
system.cpu.fetch.predictedBranches             390874                       # Number of branches that fetch has predicted taken
system.cpu.fetch.rate                        2.237451                       # Number of inst fetches per cycle
system.cpu.fetch.rateDist::samples            2621130                       # Number of instructions fetched each cycle (Total)
system.cpu.fetch.rateDist::mean              3.694183                       # Number of instructions fetched each cycle (Total)
system.cpu.fetch.rateDist::stdev             3.699936                       # Number of instructions fetched each cycle (Total)
system.cpu.fetch.rateDist::underflows               0      0.00%      0.00% # Number of instructions fetched each cycle (Total)
system.cpu.fetch.rateDist::0                  1208696     46.11%     46.11% # Number of instructions fetched each cycle (Total)
system.cpu.fetch.rateDist::1                    12107      0.46%     46.58% # Number of instructions fetched each cycle (Total)
system.cpu.fetch.rateDist::2                     7466      0.28%     46.86% # Number of instructions fetched each cycle (Total)
system.cpu.fetch.rateDist::3                   186689      7.12%     53.98% # Number of instructions fetched each cycle (Total)
system.cpu.fetch.rateDist::4                    29605      1.13%     55.11% # Number of instructions fetched each cycle (Total)
system.cpu.fetch.rateDist::5                   100382      3.83%     58.94% # Number of instructions fetched each cycle (Total)
system.cpu.fetch.rateDist::6                    40522      1.55%     60.49% # Number of instructions fetched each cycle (Total)
system.cpu.fetch.rateDist::7                    52939      2.02%     62.51% # Number of instructions fetched each cycle (Total)
system.cpu.fetch.rateDist::8                   982724     37.49%    100.00% # Number of instructions fetched each cycle (Total)
system.cpu.fetch.rateDist::overflows                0      0.00%    100.00% # Number of instructions fetched each cycle (Total)
system.cpu.fetch.rateDist::min_value                0                       # Number of instructions fetched each cycle (Total)
system.cpu.fetch.rateDist::max_value                8                       # Number of instructions fetched each cycle (Total)
system.cpu.fetch.rateDist::total              2621130                       # Number of instructions fetched each cycle (Total)
system.cpu.fp_regfile_reads                       455                       # number of floating regfile reads
system.cpu.fp_regfile_writes                      148                       # number of floating regfile writes
system.cpu.idleCycles                           39204                       # Total number of cycles that the CPU has spent unscheduled due to idling
system.cpu.iew.branchMispredicts               119453                       # Number of branch mispredicts detected at execute
system.cpu.iew.exec_branches                   723856                       # Number of branches executed
system.cpu.iew.exec_nop                             0                       # number of nop insts executed
system.cpu.iew.exec_rate                     2.427176                       # Inst execution rate
system.cpu.iew.exec_refs                       934297                       # number of memory reference insts executed
system.cpu.iew.exec_stores                     413573                       # Number of stores executed
system.cpu.iew.exec_swp                             0                       # number of swp insts executed
system.cpu.iew.iewBlockCycles                  297876                       # Number of cycles IEW is blocking
system.cpu.iew.iewDispLoadInsts                624159                       # Number of dispatched load instructions
system.cpu.iew.iewDispNonSpecInsts                 32                       # Number of dispatched non-speculative instructions
system.cpu.iew.iewDispSquashedInsts             16572                       # Number of squashed instructions skipped by dispatch
system.cpu.iew.iewDispStoreInsts               538346                       # Number of dispatched store instructions
system.cpu.iew.iewDispatchedInsts             7449385                       # Number of instructions dispatched to IQ
system.cpu.iew.iewExecLoadInsts                520724                       # Number of load instructions executed
system.cpu.iew.iewExecSquashedInsts            274928                       # Number of squashed instructions skipped in execute
system.cpu.iew.iewExecutedInsts               6457100                       # Number of executed instructions
system.cpu.iew.iewIQFullEvents                    213                       # Number of times the IQ has become full, causing a stall
system.cpu.iew.iewIdleCycles                        0                       # Number of cycles IEW is idle
system.cpu.iew.iewLSQFullEvents                  2076                       # Number of times the LSQ has become full, causing a stall
system.cpu.iew.iewSquashCycles                 108388                       # Number of cycles IEW is squashing
system.cpu.iew.iewUnblockCycles                  2321                       # Number of cycles IEW is unblocking
system.cpu.iew.lsq.thread0.blockedLoads             0                       # Number of blocked loads due to partial load-store forwarding
system.cpu.iew.lsq.thread0.cacheBlocked             3                       # Number of times an access to memory failed due to the cache being blocked
system.cpu.iew.lsq.thread0.forwLoads            26535                       # Number of loads that had data forwarded from stores
system.cpu.iew.lsq.thread0.ignoredResponses           24                       # Number of memory responses ignored because the instruction is squashed
system.cpu.iew.lsq.thread0.invAddrLoads             0                       # Number of loads ignored due to an invalid address
system.cpu.iew.lsq.thread0.invAddrSwpfs             0                       # Number of software prefetches ignored due to an invalid address
system.cpu.iew.lsq.thread0.memOrderViolation          145                       # Number of memory ordering violations
system.cpu.iew.lsq.thread0.rescheduledLoads            1                       # Number of loads that were rescheduled
system.cpu.iew.lsq.thread0.squashedLoads       203420                       # Number of loads squashed
system.cpu.iew.lsq.thread0.squashedStores       209501                       # Number of stores squashed
system.cpu.iew.memOrderViolationEvents            145                       # Number of memory order violations
system.cpu.iew.predictedNotTakenIncorrect        81326                       # Number of branches that were predicted not taken incorrectly
system.cpu.iew.predictedTakenIncorrect          38127                       # Number of branches that were predicted taken incorrectly
system.cpu.iew.wb_consumers                   6247370                       # num instructions consuming a value
system.cpu.iew.wb_count                       6391789                       # cumulative count of insts written-back
system.cpu.iew.wb_fanout                     0.721251                       # average fanout of values written-back
system.cpu.iew.wb_producers                   4505924                       # num instructions producing a value
system.cpu.iew.wb_rate                       2.402627                       # insts written-back per cycle
system.cpu.iew.wb_sent                        6412551                       # cumulative count of insts sent to commit
system.cpu.int_regfile_reads                  8694997                       # number of integer regfile reads
system.cpu.int_regfile_writes                 5234442                       # number of integer regfile writes
system.cpu.ipc                               1.090224                       # IPC: Instructions Per Cycle
system.cpu.ipc_total                         1.090224                       # IPC: Total IPC of All Threads
system.cpu.iq.FU_type_0::No_OpClass             18537      0.28%      0.28% # Type of FU issued
system.cpu.iq.FU_type_0::IntAlu               5710291     84.82%     85.10% # Type of FU issued
system.cpu.iq.FU_type_0::IntMult                    5      0.00%     85.10% # Type of FU issued
system.cpu.iq.FU_type_0::IntDiv                    22      0.00%     85.10% # Type of FU issued
system.cpu.iq.FU_type_0::FloatAdd                   2      0.00%     85.10% # Type of FU issued
system.cpu.iq.FU_type_0::FloatCmp                   0      0.00%     85.10% # Type of FU issued
system.cpu.iq.FU_type_0::FloatCvt                   0      0.00%     85.10% # Type of FU issued
system.cpu.iq.FU_type_0::FloatMult                  0      0.00%     85.10% # Type of FU issued
system.cpu.iq.FU_type_0::FloatMultAcc               0      0.00%     85.10% # Type of FU issued
system.cpu.iq.FU_type_0::FloatDiv                   0      0.00%     85.10% # Type of FU issued
system.cpu.iq.FU_type_0::FloatMisc                  0      0.00%     85.10% # Type of FU issued
system.cpu.iq.FU_type_0::FloatSqrt                  0      0.00%     85.10% # Type of FU issued
system.cpu.iq.FU_type_0::SimdAdd                    0      0.00%     85.10% # Type of FU issued
system.cpu.iq.FU_type_0::SimdAddAcc                 0      0.00%     85.10% # Type of FU issued
system.cpu.iq.FU_type_0::SimdAlu                   50      0.00%     85.10% # Type of FU issued
system.cpu.iq.FU_type_0::SimdCmp                    0      0.00%     85.10% # Type of FU issued
system.cpu.iq.FU_type_0::SimdCvt                   42      0.00%     85.10% # Type of FU issued
system.cpu.iq.FU_type_0::SimdMisc                  52      0.00%     85.10% # Type of FU issued
system.cpu.iq.FU_type_0::SimdMult                   0      0.00%     85.10% # Type of FU issued
system.cpu.iq.FU_type_0::SimdMultAcc                0      0.00%     85.10% # Type of FU issued
system.cpu.iq.FU_type_0::SimdShift                  0      0.00%     85.10% # Type of FU issued
system.cpu.iq.FU_type_0::SimdShiftAcc               0      0.00%     85.10% # Type of FU issued
system.cpu.iq.FU_type_0::SimdDiv                    0      0.00%     85.10% # Type of FU issued
system.cpu.iq.FU_type_0::SimdSqrt                   0      0.00%     85.10% # Type of FU issued
system.cpu.iq.FU_type_0::SimdFloatAdd               0      0.00%     85.10% # Type of FU issued
system.cpu.iq.FU_type_0::SimdFloatAlu               0      0.00%     85.10% # Type of FU issued
system.cpu.iq.FU_type_0::SimdFloatCmp               0      0.00%     85.10% # Type of FU issued
system.cpu.iq.FU_type_0::SimdFloatCvt               0      0.00%     85.10% # Type of FU issued
system.cpu.iq.FU_type_0::SimdFloatDiv               0      0.00%     85.10% # Type of FU issued
system.cpu.iq.FU_type_0::SimdFloatMisc              0      0.00%     85.10% # Type of FU issued
system.cpu.iq.FU_type_0::SimdFloatMult              0      0.00%     85.10% # Type of FU issued
system.cpu.iq.FU_type_0::SimdFloatMultAcc            0      0.00%     85.10% # Type of FU issued
system.cpu.iq.FU_type_0::SimdFloatSqrt              0      0.00%     85.10% # Type of FU issued
system.cpu.iq.FU_type_0::SimdReduceAdd              0      0.00%     85.10% # Type of FU issued
system.cpu.iq.FU_type_0::SimdReduceAlu              0      0.00%     85.10% # Type of FU issued
system.cpu.iq.FU_type_0::SimdReduceCmp              0      0.00%     85.10% # Type of FU issued
system.cpu.iq.FU_type_0::SimdFloatReduceAdd            0      0.00%     85.10% # Type of FU issued
system.cpu.iq.FU_type_0::SimdFloatReduceCmp            0      0.00%     85.10% # Type of FU issued
system.cpu.iq.FU_type_0::SimdAes                    0      0.00%     85.10% # Type of FU issued
system.cpu.iq.FU_type_0::SimdAesMix                 0      0.00%     85.10% # Type of FU issued
system.cpu.iq.FU_type_0::SimdSha1Hash               0      0.00%     85.10% # Type of FU issued
system.cpu.iq.FU_type_0::SimdSha1Hash2              0      0.00%     85.10% # Type of FU issued
system.cpu.iq.FU_type_0::SimdSha256Hash             0      0.00%     85.10% # Type of FU issued
system.cpu.iq.FU_type_0::SimdSha256Hash2            0      0.00%     85.10% # Type of FU issued
system.cpu.iq.FU_type_0::SimdShaSigma2              0      0.00%     85.10% # Type of FU issued
system.cpu.iq.FU_type_0::SimdShaSigma3              0      0.00%     85.10% # Type of FU issued
system.cpu.iq.FU_type_0::SimdPredAlu                0      0.00%     85.10% # Type of FU issued
system.cpu.iq.FU_type_0::MemRead               559187      8.31%     93.41% # Type of FU issued
system.cpu.iq.FU_type_0::MemWrite              440853      6.55%     99.96% # Type of FU issued
system.cpu.iq.FU_type_0::FloatMemRead            2834      0.04%    100.00% # Type of FU issued
system.cpu.iq.FU_type_0::FloatMemWrite            153      0.00%    100.00% # Type of FU issued
system.cpu.iq.FU_type_0::IprAccess                  0      0.00%    100.00% # Type of FU issued
system.cpu.iq.FU_type_0::InstPrefetch               0      0.00%    100.00% # Type of FU issued
system.cpu.iq.FU_type_0::total                6732028                       # Type of FU issued
system.cpu.iq.fp_alu_accesses                    3156                       # Number of floating point alu accesses
system.cpu.iq.fp_inst_queue_reads                6299                       # Number of floating instruction queue reads
system.cpu.iq.fp_inst_queue_wakeup_accesses          339                       # Number of floating instruction queue wakeup accesses
system.cpu.iq.fp_inst_queue_writes              26762                       # Number of floating instruction queue writes
system.cpu.iq.fu_busy_cnt                      211430                       # FU busy when requested
system.cpu.iq.fu_busy_rate                   0.031407                       # FU busy rate (busy events/executed inst)
system.cpu.iq.fu_full::No_OpClass                   0      0.00%      0.00% # attempts to use FU when none available
system.cpu.iq.fu_full::IntAlu                  211283     99.93%     99.93% # attempts to use FU when none available
system.cpu.iq.fu_full::IntMult                      0      0.00%     99.93% # attempts to use FU when none available
system.cpu.iq.fu_full::IntDiv                       0      0.00%     99.93% # attempts to use FU when none available
system.cpu.iq.fu_full::FloatAdd                     0      0.00%     99.93% # attempts to use FU when none available
system.cpu.iq.fu_full::FloatCmp                     0      0.00%     99.93% # attempts to use FU when none available
system.cpu.iq.fu_full::FloatCvt                     0      0.00%     99.93% # attempts to use FU when none available
system.cpu.iq.fu_full::FloatMult                    0      0.00%     99.93% # attempts to use FU when none available
system.cpu.iq.fu_full::FloatMultAcc                 0      0.00%     99.93% # attempts to use FU when none available
system.cpu.iq.fu_full::FloatDiv                     0      0.00%     99.93% # attempts to use FU when none available
system.cpu.iq.fu_full::FloatMisc                    0      0.00%     99.93% # attempts to use FU when none available
system.cpu.iq.fu_full::FloatSqrt                    0      0.00%     99.93% # attempts to use FU when none available
system.cpu.iq.fu_full::SimdAdd                      0      0.00%     99.93% # attempts to use FU when none available
system.cpu.iq.fu_full::SimdAddAcc                   0      0.00%     99.93% # attempts to use FU when none available
system.cpu.iq.fu_full::SimdAlu                      2      0.00%     99.93% # attempts to use FU when none available
system.cpu.iq.fu_full::SimdCmp                      0      0.00%     99.93% # attempts to use FU when none available
system.cpu.iq.fu_full::SimdCvt                      2      0.00%     99.93% # attempts to use FU when none available
system.cpu.iq.fu_full::SimdMisc                     0      0.00%     99.93% # attempts to use FU when none available
system.cpu.iq.fu_full::SimdMult                     0      0.00%     99.93% # attempts to use FU when none available
system.cpu.iq.fu_full::SimdMultAcc                  0      0.00%     99.93% # attempts to use FU when none available
system.cpu.iq.fu_full::SimdShift                    0      0.00%     99.93% # attempts to use FU when none available
system.cpu.iq.fu_full::SimdShiftAcc                 0      0.00%     99.93% # attempts to use FU when none available
system.cpu.iq.fu_full::SimdDiv                      0      0.00%     99.93% # attempts to use FU when none available
system.cpu.iq.fu_full::SimdSqrt                     0      0.00%     99.93% # attempts to use FU when none available
system.cpu.iq.fu_full::SimdFloatAdd                 0      0.00%     99.93% # attempts to use FU when none available
system.cpu.iq.fu_full::SimdFloatAlu                 0      0.00%     99.93% # attempts to use FU when none available
system.cpu.iq.fu_full::SimdFloatCmp                 0      0.00%     99.93% # attempts to use FU when none available
system.cpu.iq.fu_full::SimdFloatCvt                 0      0.00%     99.93% # attempts to use FU when none available
system.cpu.iq.fu_full::SimdFloatDiv                 0      0.00%     99.93% # attempts to use FU when none available
system.cpu.iq.fu_full::SimdFloatMisc                0      0.00%     99.93% # attempts to use FU when none available
system.cpu.iq.fu_full::SimdFloatMult                0      0.00%     99.93% # attempts to use FU when none available
system.cpu.iq.fu_full::SimdFloatMultAcc             0      0.00%     99.93% # attempts to use FU when none available
system.cpu.iq.fu_full::SimdFloatSqrt                0      0.00%     99.93% # attempts to use FU when none available
system.cpu.iq.fu_full::SimdReduceAdd                0      0.00%     99.93% # attempts to use FU when none available
system.cpu.iq.fu_full::SimdReduceAlu                0      0.00%     99.93% # attempts to use FU when none available
system.cpu.iq.fu_full::SimdReduceCmp                0      0.00%     99.93% # attempts to use FU when none available
system.cpu.iq.fu_full::SimdFloatReduceAdd            0      0.00%     99.93% # attempts to use FU when none available
system.cpu.iq.fu_full::SimdFloatReduceCmp            0      0.00%     99.93% # attempts to use FU when none available
system.cpu.iq.fu_full::SimdAes                      0      0.00%     99.93% # attempts to use FU when none available
system.cpu.iq.fu_full::SimdAesMix                   0      0.00%     99.93% # attempts to use FU when none available
system.cpu.iq.fu_full::SimdSha1Hash                 0      0.00%     99.93% # attempts to use FU when none available
system.cpu.iq.fu_full::SimdSha1Hash2                0      0.00%     99.93% # attempts to use FU when none available
system.cpu.iq.fu_full::SimdSha256Hash               0      0.00%     99.93% # attempts to use FU when none available
system.cpu.iq.fu_full::SimdSha256Hash2              0      0.00%     99.93% # attempts to use FU when none available
system.cpu.iq.fu_full::SimdShaSigma2                0      0.00%     99.93% # attempts to use FU when none available
system.cpu.iq.fu_full::SimdShaSigma3                0      0.00%     99.93% # attempts to use FU when none available
system.cpu.iq.fu_full::SimdPredAlu                  0      0.00%     99.93% # attempts to use FU when none available
system.cpu.iq.fu_full::MemRead                     96      0.05%     99.98% # attempts to use FU when none available
system.cpu.iq.fu_full::MemWrite                    38      0.02%    100.00% # attempts to use FU when none available
system.cpu.iq.fu_full::FloatMemRead                 1      0.00%    100.00% # attempts to use FU when none available
system.cpu.iq.fu_full::FloatMemWrite                8      0.00%    100.00% # attempts to use FU when none available
system.cpu.iq.fu_full::IprAccess                    0      0.00%    100.00% # attempts to use FU when none available
system.cpu.iq.fu_full::InstPrefetch                 0      0.00%    100.00% # attempts to use FU when none available
system.cpu.iq.int_alu_accesses                6921765                       # Number of integer alu accesses
system.cpu.iq.int_inst_queue_reads           16312521                       # Number of integer instruction queue reads
system.cpu.iq.int_inst_queue_wakeup_accesses      6391450                       # Number of integer instruction queue wakeup accesses
system.cpu.iq.int_inst_queue_writes          10104472                       # Number of integer instruction queue writes
system.cpu.iq.iqInstsAdded                    7449318                       # Number of instructions added to the IQ (excludes non-spec)
system.cpu.iq.iqInstsIssued                   6732028                       # Number of instructions issued
system.cpu.iq.iqNonSpecInstsAdded                  67                       # Number of non-speculative instructions added to the IQ
system.cpu.iq.iqSquashedInstsExamined         2681714                       # Number of squashed instructions iterated over during squash; mainly for profiling
system.cpu.iq.iqSquashedInstsIssued             22204                       # Number of squashed instructions issued
system.cpu.iq.iqSquashedNonSpecRemoved             59                       # Number of squashed non-spec instructions that were removed
system.cpu.iq.iqSquashedOperandsExamined      2930533                       # Number of squashed operands that are examined and possibly removed from graph
system.cpu.iq.issued_per_cycle::samples       2621130                       # Number of insts issued each cycle
system.cpu.iq.issued_per_cycle::mean         2.568369                       # Number of insts issued each cycle
system.cpu.iq.issued_per_cycle::stdev        2.487141                       # Number of insts issued each cycle
system.cpu.iq.issued_per_cycle::underflows            0      0.00%      0.00% # Number of insts issued each cycle
system.cpu.iq.issued_per_cycle::0              972259     37.09%     37.09% # Number of insts issued each cycle
system.cpu.iq.issued_per_cycle::1              185384      7.07%     44.17% # Number of insts issued each cycle
system.cpu.iq.issued_per_cycle::2              233172      8.90%     53.06% # Number of insts issued each cycle
system.cpu.iq.issued_per_cycle::3              242994      9.27%     62.33% # Number of insts issued each cycle
system.cpu.iq.issued_per_cycle::4              265109     10.11%     72.45% # Number of insts issued each cycle
system.cpu.iq.issued_per_cycle::5              230896      8.81%     81.26% # Number of insts issued each cycle
system.cpu.iq.issued_per_cycle::6              326396     12.45%     93.71% # Number of insts issued each cycle
system.cpu.iq.issued_per_cycle::7              141334      5.39%     99.10% # Number of insts issued each cycle
system.cpu.iq.issued_per_cycle::8               23586      0.90%    100.00% # Number of insts issued each cycle
system.cpu.iq.issued_per_cycle::overflows            0      0.00%    100.00% # Number of insts issued each cycle
system.cpu.iq.issued_per_cycle::min_value            0                       # Number of insts issued each cycle
system.cpu.iq.issued_per_cycle::max_value            8                       # Number of insts issued each cycle
system.cpu.iq.issued_per_cycle::total         2621130                       # Number of insts issued each cycle
system.cpu.iq.rate                           2.530520                       # Inst issue rate
system.cpu.iq.vec_alu_accesses                      0                       # Number of vector alu accesses
system.cpu.iq.vec_inst_queue_reads                  0                       # Number of vector instruction queue reads
system.cpu.iq.vec_inst_queue_wakeup_accesses            0                       # Number of vector instruction queue wakeup accesses
system.cpu.iq.vec_inst_queue_writes                 0                       # Number of vector instruction queue writes
system.cpu.itb.rdAccesses                           0                       # TLB accesses on read requests
system.cpu.itb.rdMisses                             0                       # TLB misses on read requests
system.cpu.itb.wrAccesses                      614928                       # TLB accesses on write requests
system.cpu.itb.wrMisses                           109                       # TLB misses on write requests
system.cpu.memDep0.conflictingLoads            120317                       # Number of conflicting loads.
system.cpu.memDep0.conflictingStores           168457                       # Number of conflicting stores.
system.cpu.memDep0.insertedLoads               624159                       # Number of loads inserted to the mem dependence unit.
system.cpu.memDep0.insertedStores              538346                       # Number of stores inserted to the mem dependence unit.
system.cpu.misc_regfile_reads                 2444502                       # number of misc regfile reads
system.cpu.misc_regfile_writes                      1                       # number of misc regfile writes
system.cpu.numCycles                          2660334                       # number of cpu cycles simulated
system.cpu.numWorkItemsCompleted                    0                       # number of work items this cpu completed
system.cpu.numWorkItemsStarted                      0                       # number of work items this cpu started
system.cpu.rename.BlockCycles                  485152                       # Number of cycles rename is blocking
system.cpu.rename.CommittedMaps               5921431                       # Number of HB maps that are committed
system.cpu.rename.IQFullEvents                   5246                       # Number of times rename has blocked due to IQ full
system.cpu.rename.IdleCycles                   726362                       # Number of cycles rename is idle
system.cpu.rename.ROBFullEvents                 53428                       # Number of times rename has blocked due to ROB full
system.cpu.rename.RenameLookups              20181583                       # Number of register rename lookups that rename has made
system.cpu.rename.RenamedInsts                8545589                       # Number of instructions processed by rename
system.cpu.rename.RenamedOperands            10583570                       # Number of destination operands rename has renamed
system.cpu.rename.RunCycles                   1134706                       # Number of cycles rename is running
system.cpu.rename.SQFullEvents                  33777                       # Number of times rename has blocked due to SQ full
system.cpu.rename.SquashCycles                 108388                       # Number of cycles rename is squashing
system.cpu.rename.UnblockCycles                164927                       # Number of cycles rename is unblocking
system.cpu.rename.UndoneMaps                  4662139                       # Number of HB maps that are undone due to squashing
system.cpu.rename.fp_rename_lookups              7595                       # Number of floating rename lookups
system.cpu.rename.int_rename_lookups         12250548                       # Number of integer rename lookups
system.cpu.rename.serializeStallCycles           1595                       # count of cycles rename stalled for serializing inst
system.cpu.rename.serializingInsts                 22                       # count of serializing insts renamed
system.cpu.rename.skidInsts                    698714                       # count of insts added to the skid buffer
system.cpu.rename.tempSerializingInsts             16                       # count of temporary serializing insts renamed
system.cpu.rob.rob_reads                      9448041                       # The number of ROB reads
system.cpu.rob.rob_writes                    15286819                       # The number of ROB writes
system.cpu.timesIdled                             210                       # Number of times that the entire CPU went into an idle state and unscheduled itself
system.cpu.workload.numSyscalls                     7                       # Number of system calls
system.l2bus.snoop_filter.hit_multi_requests            1                       # Number of requests hitting in the snoop filter with multiple (>1) holders of the requested data.
system.l2bus.snoop_filter.hit_multi_snoops            0                       # Number of snoops hitting in the snoop filter with multiple (>1) holders of the requested data.
system.l2bus.snoop_filter.hit_single_requests           22                       # Number of requests hitting in the snoop filter with a single holder of the requested data.
system.l2bus.snoop_filter.hit_single_snoops            0                       # Number of snoops hitting in the snoop filter with a single holder of the requested data.
system.l2bus.snoop_filter.tot_requests           1549                       # Total number of requests made to the snoop filter.
system.l2bus.snoop_filter.tot_snoops                0                       # Total number of snoops made to the snoop filter.
system.membus.snoop_filter.hit_multi_requests            0                       # Number of requests hitting in the snoop filter with multiple (>1) holders of the requested data.
system.membus.snoop_filter.hit_multi_snoops            0                       # Number of snoops hitting in the snoop filter with multiple (>1) holders of the requested data.
system.membus.snoop_filter.hit_single_requests            0                       # Number of requests hitting in the snoop filter with a single holder of the requested data.
system.membus.snoop_filter.hit_single_snoops            0                       # Number of snoops hitting in the snoop filter with a single holder of the requested data.
system.membus.snoop_filter.tot_requests          1525                       # Total number of requests made to the snoop filter.
system.membus.snoop_filter.tot_snoops               0                       # Total number of snoops made to the snoop filter.
system.membus.pwrStateResidencyTicks::UNDEFINED    665083250                       # Cumulative time (in ticks) in various power states
system.membus.trans_dist::ReadResp               1006                       # Transaction distribution
system.membus.trans_dist::ReadExReq               519                       # Transaction distribution
system.membus.trans_dist::ReadExResp              519                       # Transaction distribution
system.membus.trans_dist::ReadSharedReq          1006                       # Transaction distribution
system.membus.pkt_count_system.l2cache.mem_side::system.mem_ctrl.port         3050                       # Packet count per connected master and slave (bytes)
system.membus.pkt_count_system.l2cache.mem_side::total         3050                       # Packet count per connected master and slave (bytes)
system.membus.pkt_count::total                   3050                       # Packet count per connected master and slave (bytes)
system.membus.pkt_size_system.l2cache.mem_side::system.mem_ctrl.port        97600                       # Cumulative packet size per connected master and slave (bytes)
system.membus.pkt_size_system.l2cache.mem_side::total        97600                       # Cumulative packet size per connected master and slave (bytes)
system.membus.pkt_size::total                   97600                       # Cumulative packet size per connected master and slave (bytes)
system.membus.snoops                                0                       # Total snoops (count)
system.membus.snoopTraffic                          0                       # Total snoop traffic (bytes)
system.membus.snoop_fanout::samples              1525                       # Request fanout histogram
system.membus.snoop_fanout::mean                    0                       # Request fanout histogram
system.membus.snoop_fanout::stdev                   0                       # Request fanout histogram
system.membus.snoop_fanout::underflows              0      0.00%      0.00% # Request fanout histogram
system.membus.snoop_fanout::0                    1525    100.00%    100.00% # Request fanout histogram
system.membus.snoop_fanout::1                       0      0.00%    100.00% # Request fanout histogram
system.membus.snoop_fanout::overflows               0      0.00%    100.00% # Request fanout histogram
system.membus.snoop_fanout::min_value               0                       # Request fanout histogram
system.membus.snoop_fanout::max_value               0                       # Request fanout histogram
system.membus.snoop_fanout::total                1525                       # Request fanout histogram
system.membus.reqLayer2.occupancy              381250                       # Layer occupancy (ticks)
system.membus.reqLayer2.utilization               0.1                       # Layer utilization (%)
system.membus.respLayer0.occupancy            1906250                       # Layer occupancy (ticks)
system.membus.respLayer0.utilization              0.3                       # Layer utilization (%)
system.l2bus.pwrStateResidencyTicks::UNDEFINED    665083250                       # Cumulative time (in ticks) in various power states
system.l2bus.trans_dist::ReadResp                1007                       # Transaction distribution
system.l2bus.trans_dist::WritebackDirty             5                       # Transaction distribution
system.l2bus.trans_dist::CleanEvict                17                       # Transaction distribution
system.l2bus.trans_dist::ReadExReq                519                       # Transaction distribution
system.l2bus.trans_dist::ReadExResp               519                       # Transaction distribution
system.l2bus.trans_dist::ReadSharedReq           1008                       # Transaction distribution
system.l2bus.pkt_count_system.cpu.icache.mem_side::system.l2cache.cpu_side          669                       # Packet count per connected master and slave (bytes)
system.l2bus.pkt_count_system.cpu.dcache.mem_side::system.l2cache.cpu_side         2406                       # Packet count per connected master and slave (bytes)
system.l2bus.pkt_count::total                    3075                       # Packet count per connected master and slave (bytes)
system.l2bus.pkt_size_system.cpu.icache.mem_side::system.l2cache.cpu_side        21376                       # Cumulative packet size per connected master and slave (bytes)
system.l2bus.pkt_size_system.cpu.dcache.mem_side::system.l2cache.cpu_side        76608                       # Cumulative packet size per connected master and slave (bytes)
system.l2bus.pkt_size::total                    97984                       # Cumulative packet size per connected master and slave (bytes)
system.l2bus.snoops                                 0                       # Total snoops (count)
system.l2bus.snoopTraffic                           0                       # Total snoop traffic (bytes)
system.l2bus.snoop_fanout::samples               1527                       # Request fanout histogram
system.l2bus.snoop_fanout::mean              0.000655                       # Request fanout histogram
system.l2bus.snoop_fanout::stdev             0.025591                       # Request fanout histogram
system.l2bus.snoop_fanout::underflows               0      0.00%      0.00% # Request fanout histogram
system.l2bus.snoop_fanout::0                     1526     99.93%     99.93% # Request fanout histogram
system.l2bus.snoop_fanout::1                        1      0.07%    100.00% # Request fanout histogram
system.l2bus.snoop_fanout::2                        0      0.00%    100.00% # Request fanout histogram
system.l2bus.snoop_fanout::overflows                0      0.00%    100.00% # Request fanout histogram
system.l2bus.snoop_fanout::min_value                0                       # Request fanout histogram
system.l2bus.snoop_fanout::max_value                1                       # Request fanout histogram
system.l2bus.snoop_fanout::total                 1527                       # Request fanout histogram
system.l2bus.respLayer1.occupancy              894000                       # Layer occupancy (ticks)
system.l2bus.respLayer1.utilization               0.1                       # Layer utilization (%)
system.l2bus.reqLayer0.occupancy               389750                       # Layer occupancy (ticks)
system.l2bus.reqLayer0.utilization                0.1                       # Layer utilization (%)
system.l2bus.respLayer0.occupancy              250500                       # Layer occupancy (ticks)
system.l2bus.respLayer0.utilization               0.0                       # Layer utilization (%)
system.clk_domain.clock                           250                       # Clock period in ticks
system.clk_domain.voltage_domain.voltage            1                       # Voltage in Volts
system.cpu.pwrStateResidencyTicks::ON       665083250                       # Cumulative time (in ticks) in various power states
system.cpu.icache.pwrStateResidencyTicks::UNDEFINED    665083250                       # Cumulative time (in ticks) in various power states
system.cpu.icache.demand_hits::.cpu.inst       614370                       # number of demand (read+write) hits
system.cpu.icache.demand_hits::total           614370                       # number of demand (read+write) hits
system.cpu.icache.overall_hits::.cpu.inst       614370                       # number of overall hits
system.cpu.icache.overall_hits::total          614370                       # number of overall hits
system.cpu.icache.demand_misses::.cpu.inst          480                       # number of demand (read+write) misses
system.cpu.icache.demand_misses::total            480                       # number of demand (read+write) misses
system.cpu.icache.overall_misses::.cpu.inst          480                       # number of overall misses
system.cpu.icache.overall_misses::total           480                       # number of overall misses
system.cpu.icache.demand_miss_latency::.cpu.inst     27208750                       # number of demand (read+write) miss cycles
system.cpu.icache.demand_miss_latency::total     27208750                       # number of demand (read+write) miss cycles
system.cpu.icache.overall_miss_latency::.cpu.inst     27208750                       # number of overall miss cycles
system.cpu.icache.overall_miss_latency::total     27208750                       # number of overall miss cycles
system.cpu.icache.demand_accesses::.cpu.inst       614850                       # number of demand (read+write) accesses
system.cpu.icache.demand_accesses::total       614850                       # number of demand (read+write) accesses
system.cpu.icache.overall_accesses::.cpu.inst       614850                       # number of overall (read+write) accesses
system.cpu.icache.overall_accesses::total       614850                       # number of overall (read+write) accesses
system.cpu.icache.demand_miss_rate::.cpu.inst     0.000781                       # miss rate for demand accesses
system.cpu.icache.demand_miss_rate::total     0.000781                       # miss rate for demand accesses
system.cpu.icache.overall_miss_rate::.cpu.inst     0.000781                       # miss rate for overall accesses
system.cpu.icache.overall_miss_rate::total     0.000781                       # miss rate for overall accesses
system.cpu.icache.demand_avg_miss_latency::.cpu.inst 56684.895833                       # average overall miss latency
system.cpu.icache.demand_avg_miss_latency::total 56684.895833                       # average overall miss latency
system.cpu.icache.overall_avg_miss_latency::.cpu.inst 56684.895833                       # average overall miss latency
system.cpu.icache.overall_avg_miss_latency::total 56684.895833                       # average overall miss latency
system.cpu.icache.blocked_cycles::no_mshrs          376                       # number of cycles access was blocked
system.cpu.icache.blocked_cycles::no_targets            0                       # number of cycles access was blocked
system.cpu.icache.blocked::no_mshrs                 2                       # number of cycles access was blocked
system.cpu.icache.blocked::no_targets               0                       # number of cycles access was blocked
system.cpu.icache.avg_blocked_cycles::no_mshrs          188                       # average number of cycles each access was blocked
system.cpu.icache.avg_blocked_cycles::no_targets          nan                       # average number of cycles each access was blocked
system.cpu.icache.demand_mshr_hits::.cpu.inst          145                       # number of demand (read+write) MSHR hits
system.cpu.icache.demand_mshr_hits::total          145                       # number of demand (read+write) MSHR hits
system.cpu.icache.overall_mshr_hits::.cpu.inst          145                       # number of overall MSHR hits
system.cpu.icache.overall_mshr_hits::total          145                       # number of overall MSHR hits
system.cpu.icache.demand_mshr_misses::.cpu.inst          335                       # number of demand (read+write) MSHR misses
system.cpu.icache.demand_mshr_misses::total          335                       # number of demand (read+write) MSHR misses
system.cpu.icache.overall_mshr_misses::.cpu.inst          335                       # number of overall MSHR misses
system.cpu.icache.overall_mshr_misses::total          335                       # number of overall MSHR misses
system.cpu.icache.demand_mshr_miss_latency::.cpu.inst     20777500                       # number of demand (read+write) MSHR miss cycles
system.cpu.icache.demand_mshr_miss_latency::total     20777500                       # number of demand (read+write) MSHR miss cycles
system.cpu.icache.overall_mshr_miss_latency::.cpu.inst     20777500                       # number of overall MSHR miss cycles
system.cpu.icache.overall_mshr_miss_latency::total     20777500                       # number of overall MSHR miss cycles
system.cpu.icache.demand_mshr_miss_rate::.cpu.inst     0.000545                       # mshr miss rate for demand accesses
system.cpu.icache.demand_mshr_miss_rate::total     0.000545                       # mshr miss rate for demand accesses
system.cpu.icache.overall_mshr_miss_rate::.cpu.inst     0.000545                       # mshr miss rate for overall accesses
system.cpu.icache.overall_mshr_miss_rate::total     0.000545                       # mshr miss rate for overall accesses
system.cpu.icache.demand_avg_mshr_miss_latency::.cpu.inst 62022.388060                       # average overall mshr miss latency
system.cpu.icache.demand_avg_mshr_miss_latency::total 62022.388060                       # average overall mshr miss latency
system.cpu.icache.overall_avg_mshr_miss_latency::.cpu.inst 62022.388060                       # average overall mshr miss latency
system.cpu.icache.overall_avg_mshr_miss_latency::total 62022.388060                       # average overall mshr miss latency
system.cpu.icache.replacements                      0                       # number of replacements
system.cpu.icache.ReadReq_hits::.cpu.inst       614370                       # number of ReadReq hits
system.cpu.icache.ReadReq_hits::total          614370                       # number of ReadReq hits
system.cpu.icache.ReadReq_misses::.cpu.inst          480                       # number of ReadReq misses
system.cpu.icache.ReadReq_misses::total           480                       # number of ReadReq misses
system.cpu.icache.ReadReq_miss_latency::.cpu.inst     27208750                       # number of ReadReq miss cycles
system.cpu.icache.ReadReq_miss_latency::total     27208750                       # number of ReadReq miss cycles
system.cpu.icache.ReadReq_accesses::.cpu.inst       614850                       # number of ReadReq accesses(hits+misses)
system.cpu.icache.ReadReq_accesses::total       614850                       # number of ReadReq accesses(hits+misses)
system.cpu.icache.ReadReq_miss_rate::.cpu.inst     0.000781                       # miss rate for ReadReq accesses
system.cpu.icache.ReadReq_miss_rate::total     0.000781                       # miss rate for ReadReq accesses
system.cpu.icache.ReadReq_avg_miss_latency::.cpu.inst 56684.895833                       # average ReadReq miss latency
system.cpu.icache.ReadReq_avg_miss_latency::total 56684.895833                       # average ReadReq miss latency
system.cpu.icache.ReadReq_mshr_hits::.cpu.inst          145                       # number of ReadReq MSHR hits
system.cpu.icache.ReadReq_mshr_hits::total          145                       # number of ReadReq MSHR hits
system.cpu.icache.ReadReq_mshr_misses::.cpu.inst          335                       # number of ReadReq MSHR misses
system.cpu.icache.ReadReq_mshr_misses::total          335                       # number of ReadReq MSHR misses
system.cpu.icache.ReadReq_mshr_miss_latency::.cpu.inst     20777500                       # number of ReadReq MSHR miss cycles
system.cpu.icache.ReadReq_mshr_miss_latency::total     20777500                       # number of ReadReq MSHR miss cycles
system.cpu.icache.ReadReq_mshr_miss_rate::.cpu.inst     0.000545                       # mshr miss rate for ReadReq accesses
system.cpu.icache.ReadReq_mshr_miss_rate::total     0.000545                       # mshr miss rate for ReadReq accesses
system.cpu.icache.ReadReq_avg_mshr_miss_latency::.cpu.inst 62022.388060                       # average ReadReq mshr miss latency
system.cpu.icache.ReadReq_avg_mshr_miss_latency::total 62022.388060                       # average ReadReq mshr miss latency
system.cpu.icache.tags.pwrStateResidencyTicks::UNDEFINED    665083250                       # Cumulative time (in ticks) in various power states
system.cpu.icache.tags.tagsinuse           304.874885                       # Cycle average of tags in use
system.cpu.icache.tags.total_refs              614704                       # Total number of references to valid blocks.
system.cpu.icache.tags.sampled_refs               334                       # Sample count of references to valid blocks.
system.cpu.icache.tags.avg_refs           1840.431138                       # Average number of references to valid blocks.
system.cpu.icache.tags.warmup_cycle             74000                       # Cycle when the warmup percentage was hit.
system.cpu.icache.tags.occ_blocks::.cpu.inst   304.874885                       # Average occupied blocks per requestor
system.cpu.icache.tags.occ_percent::.cpu.inst     0.148865                       # Average percentage of cache occupancy
system.cpu.icache.tags.occ_percent::total     0.148865                       # Average percentage of cache occupancy
system.cpu.icache.tags.occ_task_id_blocks::1024          334                       # Occupied blocks per task id
system.cpu.icache.tags.age_task_id_blocks_1024::0           25                       # Occupied blocks per task id
system.cpu.icache.tags.age_task_id_blocks_1024::2          309                       # Occupied blocks per task id
system.cpu.icache.tags.occ_task_id_percent::1024     0.163086                       # Percentage of cache occupancy per task id
system.cpu.icache.tags.tag_accesses           1230034                       # Number of tag accesses
system.cpu.icache.tags.data_accesses          1230034                       # Number of data accesses
system.cpu.dtb.walker.pwrStateResidencyTicks::UNDEFINED    665083250                       # Cumulative time (in ticks) in various power states
system.cpu.interrupts.clk_domain.clock           4000                       # Clock period in ticks
system.cpu.itb.walker.pwrStateResidencyTicks::UNDEFINED    665083250                       # Cumulative time (in ticks) in various power states
system.cpu.dcache.pwrStateResidencyTicks::UNDEFINED    665083250                       # Cumulative time (in ticks) in various power states
system.cpu.dcache.demand_hits::.cpu.data       820256                       # number of demand (read+write) hits
system.cpu.dcache.demand_hits::total           820256                       # number of demand (read+write) hits
system.cpu.dcache.overall_hits::.cpu.data       820256                       # number of overall hits
system.cpu.dcache.overall_hits::total          820256                       # number of overall hits
system.cpu.dcache.demand_misses::.cpu.data         3022                       # number of demand (read+write) misses
system.cpu.dcache.demand_misses::total           3022                       # number of demand (read+write) misses
system.cpu.dcache.overall_misses::.cpu.data         3022                       # number of overall misses
system.cpu.dcache.overall_misses::total          3022                       # number of overall misses
system.cpu.dcache.demand_miss_latency::.cpu.data    159772250                       # number of demand (read+write) miss cycles
system.cpu.dcache.demand_miss_latency::total    159772250                       # number of demand (read+write) miss cycles
system.cpu.dcache.overall_miss_latency::.cpu.data    159772250                       # number of overall miss cycles
system.cpu.dcache.overall_miss_latency::total    159772250                       # number of overall miss cycles
system.cpu.dcache.demand_accesses::.cpu.data       823278                       # number of demand (read+write) accesses
system.cpu.dcache.demand_accesses::total       823278                       # number of demand (read+write) accesses
system.cpu.dcache.overall_accesses::.cpu.data       823278                       # number of overall (read+write) accesses
system.cpu.dcache.overall_accesses::total       823278                       # number of overall (read+write) accesses
system.cpu.dcache.demand_miss_rate::.cpu.data     0.003671                       # miss rate for demand accesses
system.cpu.dcache.demand_miss_rate::total     0.003671                       # miss rate for demand accesses
system.cpu.dcache.overall_miss_rate::.cpu.data     0.003671                       # miss rate for overall accesses
system.cpu.dcache.overall_miss_rate::total     0.003671                       # miss rate for overall accesses
system.cpu.dcache.demand_avg_miss_latency::.cpu.data 52869.705493                       # average overall miss latency
system.cpu.dcache.demand_avg_miss_latency::total 52869.705493                       # average overall miss latency
system.cpu.dcache.overall_avg_miss_latency::.cpu.data 52869.705493                       # average overall miss latency
system.cpu.dcache.overall_avg_miss_latency::total 52869.705493                       # average overall miss latency
system.cpu.dcache.blocked_cycles::no_mshrs          360                       # number of cycles access was blocked
system.cpu.dcache.blocked_cycles::no_targets            0                       # number of cycles access was blocked
system.cpu.dcache.blocked::no_mshrs                 6                       # number of cycles access was blocked
system.cpu.dcache.blocked::no_targets               0                       # number of cycles access was blocked
system.cpu.dcache.avg_blocked_cycles::no_mshrs           60                       # average number of cycles each access was blocked
system.cpu.dcache.avg_blocked_cycles::no_targets          nan                       # average number of cycles each access was blocked
system.cpu.dcache.writebacks::.writebacks            5                       # number of writebacks
system.cpu.dcache.writebacks::total                 5                       # number of writebacks
system.cpu.dcache.demand_mshr_hits::.cpu.data         1830                       # number of demand (read+write) MSHR hits
system.cpu.dcache.demand_mshr_hits::total         1830                       # number of demand (read+write) MSHR hits
system.cpu.dcache.overall_mshr_hits::.cpu.data         1830                       # number of overall MSHR hits
system.cpu.dcache.overall_mshr_hits::total         1830                       # number of overall MSHR hits
system.cpu.dcache.demand_mshr_misses::.cpu.data         1192                       # number of demand (read+write) MSHR misses
system.cpu.dcache.demand_mshr_misses::total         1192                       # number of demand (read+write) MSHR misses
system.cpu.dcache.overall_mshr_misses::.cpu.data         1192                       # number of overall MSHR misses
system.cpu.dcache.overall_mshr_misses::total         1192                       # number of overall MSHR misses
system.cpu.dcache.demand_mshr_miss_latency::.cpu.data     71288250                       # number of demand (read+write) MSHR miss cycles
system.cpu.dcache.demand_mshr_miss_latency::total     71288250                       # number of demand (read+write) MSHR miss cycles
system.cpu.dcache.overall_mshr_miss_latency::.cpu.data     71288250                       # number of overall MSHR miss cycles
system.cpu.dcache.overall_mshr_miss_latency::total     71288250                       # number of overall MSHR miss cycles
system.cpu.dcache.demand_mshr_miss_rate::.cpu.data     0.001448                       # mshr miss rate for demand accesses
system.cpu.dcache.demand_mshr_miss_rate::total     0.001448                       # mshr miss rate for demand accesses
system.cpu.dcache.overall_mshr_miss_rate::.cpu.data     0.001448                       # mshr miss rate for overall accesses
system.cpu.dcache.overall_mshr_miss_rate::total     0.001448                       # mshr miss rate for overall accesses
system.cpu.dcache.demand_avg_mshr_miss_latency::.cpu.data 59805.578859                       # average overall mshr miss latency
system.cpu.dcache.demand_avg_mshr_miss_latency::total 59805.578859                       # average overall mshr miss latency
system.cpu.dcache.overall_avg_mshr_miss_latency::.cpu.data 59805.578859                       # average overall mshr miss latency
system.cpu.dcache.overall_avg_mshr_miss_latency::total 59805.578859                       # average overall mshr miss latency
system.cpu.dcache.replacements                     22                       # number of replacements
system.cpu.dcache.ReadReq_hits::.cpu.data       492001                       # number of ReadReq hits
system.cpu.dcache.ReadReq_hits::total          492001                       # number of ReadReq hits
system.cpu.dcache.ReadReq_misses::.cpu.data         2431                       # number of ReadReq misses
system.cpu.dcache.ReadReq_misses::total          2431                       # number of ReadReq misses
system.cpu.dcache.ReadReq_miss_latency::.cpu.data    128807500                       # number of ReadReq miss cycles
system.cpu.dcache.ReadReq_miss_latency::total    128807500                       # number of ReadReq miss cycles
system.cpu.dcache.ReadReq_accesses::.cpu.data       494432                       # number of ReadReq accesses(hits+misses)
system.cpu.dcache.ReadReq_accesses::total       494432                       # number of ReadReq accesses(hits+misses)
system.cpu.dcache.ReadReq_miss_rate::.cpu.data     0.004917                       # miss rate for ReadReq accesses
system.cpu.dcache.ReadReq_miss_rate::total     0.004917                       # miss rate for ReadReq accesses
system.cpu.dcache.ReadReq_avg_miss_latency::.cpu.data 52985.396956                       # average ReadReq miss latency
system.cpu.dcache.ReadReq_avg_miss_latency::total 52985.396956                       # average ReadReq miss latency
system.cpu.dcache.ReadReq_mshr_hits::.cpu.data         1758                       # number of ReadReq MSHR hits
system.cpu.dcache.ReadReq_mshr_hits::total         1758                       # number of ReadReq MSHR hits
system.cpu.dcache.ReadReq_mshr_misses::.cpu.data          673                       # number of ReadReq MSHR misses
system.cpu.dcache.ReadReq_mshr_misses::total          673                       # number of ReadReq MSHR misses
system.cpu.dcache.ReadReq_mshr_miss_latency::.cpu.data     42079000                       # number of ReadReq MSHR miss cycles
system.cpu.dcache.ReadReq_mshr_miss_latency::total     42079000                       # number of ReadReq MSHR miss cycles
system.cpu.dcache.ReadReq_mshr_miss_rate::.cpu.data     0.001361                       # mshr miss rate for ReadReq accesses
system.cpu.dcache.ReadReq_mshr_miss_rate::total     0.001361                       # mshr miss rate for ReadReq accesses
system.cpu.dcache.ReadReq_avg_mshr_miss_latency::.cpu.data 62524.517088                       # average ReadReq mshr miss latency
system.cpu.dcache.ReadReq_avg_mshr_miss_latency::total 62524.517088                       # average ReadReq mshr miss latency
system.cpu.dcache.WriteReq_hits::.cpu.data       328255                       # number of WriteReq hits
system.cpu.dcache.WriteReq_hits::total         328255                       # number of WriteReq hits
system.cpu.dcache.WriteReq_misses::.cpu.data          591                       # number of WriteReq misses
system.cpu.dcache.WriteReq_misses::total          591                       # number of WriteReq misses
system.cpu.dcache.WriteReq_miss_latency::.cpu.data     30964750                       # number of WriteReq miss cycles
system.cpu.dcache.WriteReq_miss_latency::total     30964750                       # number of WriteReq miss cycles
system.cpu.dcache.WriteReq_accesses::.cpu.data       328846                       # number of WriteReq accesses(hits+misses)
system.cpu.dcache.WriteReq_accesses::total       328846                       # number of WriteReq accesses(hits+misses)
system.cpu.dcache.WriteReq_miss_rate::.cpu.data     0.001797                       # miss rate for WriteReq accesses
system.cpu.dcache.WriteReq_miss_rate::total     0.001797                       # miss rate for WriteReq accesses
system.cpu.dcache.WriteReq_avg_miss_latency::.cpu.data 52393.824027                       # average WriteReq miss latency
system.cpu.dcache.WriteReq_avg_miss_latency::total 52393.824027                       # average WriteReq miss latency
system.cpu.dcache.WriteReq_mshr_hits::.cpu.data           72                       # number of WriteReq MSHR hits
system.cpu.dcache.WriteReq_mshr_hits::total           72                       # number of WriteReq MSHR hits
system.cpu.dcache.WriteReq_mshr_misses::.cpu.data          519                       # number of WriteReq MSHR misses
system.cpu.dcache.WriteReq_mshr_misses::total          519                       # number of WriteReq MSHR misses
system.cpu.dcache.WriteReq_mshr_miss_latency::.cpu.data     29209250                       # number of WriteReq MSHR miss cycles
system.cpu.dcache.WriteReq_mshr_miss_latency::total     29209250                       # number of WriteReq MSHR miss cycles
system.cpu.dcache.WriteReq_mshr_miss_rate::.cpu.data     0.001578                       # mshr miss rate for WriteReq accesses
system.cpu.dcache.WriteReq_mshr_miss_rate::total     0.001578                       # mshr miss rate for WriteReq accesses
system.cpu.dcache.WriteReq_avg_mshr_miss_latency::.cpu.data 56279.865125                       # average WriteReq mshr miss latency
system.cpu.dcache.WriteReq_avg_mshr_miss_latency::total 56279.865125                       # average WriteReq mshr miss latency
system.cpu.dcache.tags.pwrStateResidencyTicks::UNDEFINED    665083250                       # Cumulative time (in ticks) in various power states
system.cpu.dcache.tags.tagsinuse           697.984828                       # Cycle average of tags in use
system.cpu.dcache.tags.total_refs              821448                       # Total number of references to valid blocks.
system.cpu.dcache.tags.sampled_refs              1192                       # Sample count of references to valid blocks.
system.cpu.dcache.tags.avg_refs            689.134228                       # Average number of references to valid blocks.
system.cpu.dcache.tags.warmup_cycle            142000                       # Cycle when the warmup percentage was hit.
system.cpu.dcache.tags.occ_blocks::.cpu.data   697.984828                       # Average occupied blocks per requestor
system.cpu.dcache.tags.occ_percent::.cpu.data     0.340813                       # Average percentage of cache occupancy
system.cpu.dcache.tags.occ_percent::total     0.340813                       # Average percentage of cache occupancy
system.cpu.dcache.tags.occ_task_id_blocks::1024         1170                       # Occupied blocks per task id
system.cpu.dcache.tags.age_task_id_blocks_1024::0           21                       # Occupied blocks per task id
system.cpu.dcache.tags.age_task_id_blocks_1024::1           62                       # Occupied blocks per task id
system.cpu.dcache.tags.age_task_id_blocks_1024::2         1087                       # Occupied blocks per task id
system.cpu.dcache.tags.occ_task_id_percent::1024     0.571289                       # Percentage of cache occupancy per task id
system.cpu.dcache.tags.tag_accesses           1647748                       # Number of tag accesses
system.cpu.dcache.tags.data_accesses          1647748                       # Number of data accesses
system.l2cache.pwrStateResidencyTicks::UNDEFINED    665083250                       # Cumulative time (in ticks) in various power states
system.l2cache.demand_hits::.cpu.inst               1                       # number of demand (read+write) hits
system.l2cache.demand_hits::total                   1                       # number of demand (read+write) hits
system.l2cache.overall_hits::.cpu.inst              1                       # number of overall hits
system.l2cache.overall_hits::total                  1                       # number of overall hits
system.l2cache.demand_misses::.cpu.inst           334                       # number of demand (read+write) misses
system.l2cache.demand_misses::.cpu.data          1192                       # number of demand (read+write) misses
system.l2cache.demand_misses::total              1526                       # number of demand (read+write) misses
system.l2cache.overall_misses::.cpu.inst          334                       # number of overall misses
system.l2cache.overall_misses::.cpu.data         1192                       # number of overall misses
system.l2cache.overall_misses::total             1526                       # number of overall misses
system.l2cache.demand_miss_latency::.cpu.inst     20521000                       # number of demand (read+write) miss cycles
system.l2cache.demand_miss_latency::.cpu.data     70394250                       # number of demand (read+write) miss cycles
system.l2cache.demand_miss_latency::total     90915250                       # number of demand (read+write) miss cycles
system.l2cache.overall_miss_latency::.cpu.inst     20521000                       # number of overall miss cycles
system.l2cache.overall_miss_latency::.cpu.data     70394250                       # number of overall miss cycles
system.l2cache.overall_miss_latency::total     90915250                       # number of overall miss cycles
system.l2cache.demand_accesses::.cpu.inst          335                       # number of demand (read+write) accesses
system.l2cache.demand_accesses::.cpu.data         1192                       # number of demand (read+write) accesses
system.l2cache.demand_accesses::total            1527                       # number of demand (read+write) accesses
system.l2cache.overall_accesses::.cpu.inst          335                       # number of overall (read+write) accesses
system.l2cache.overall_accesses::.cpu.data         1192                       # number of overall (read+write) accesses
[...]
system.mem_ctrl.rdQLenPdf::11                       0                       # What read queue length does an incoming req see
system.mem_ctrl.rdQLenPdf::12                       0                       # What read queue length does an incoming req see
system.mem_ctrl.rdQLenPdf::13                       0                       # What read queue length does an incoming req see
system.mem_ctrl.rdQLenPdf::14                       0                       # What read queue length does an incoming req see
system.mem_ctrl.rdQLenPdf::15                       0                       # What read queue length does an incoming req see
system.mem_ctrl.rdQLenPdf::16                       0                       # What read queue length does an incoming req see
system.mem_ctrl.rdQLenPdf::17                       0                       # What read queue length does an incoming req see
system.mem_ctrl.rdQLenPdf::18                       0                       # What read queue length does an incoming req see
system.mem_ctrl.rdQLenPdf::19                       0                       # What read queue length does an incoming req see
system.mem_ctrl.rdQLenPdf::20                       0                       # What read queue length does an incoming req see
system.mem_ctrl.rdQLenPdf::21                       0                       # What read queue length does an incoming req see
system.mem_ctrl.rdQLenPdf::22                       0                       # What read queue length does an incoming req see
system.mem_ctrl.rdQLenPdf::23                       0                       # What read queue length does an incoming req see
system.mem_ctrl.rdQLenPdf::24                       0                       # What read queue length does an incoming req see
system.mem_ctrl.rdQLenPdf::25                       0                       # What read queue length does an incoming req see
system.mem_ctrl.rdQLenPdf::26                       0                       # What read queue length does an incoming req see
system.mem_ctrl.rdQLenPdf::27                       0                       # What read queue length does an incoming req see
system.mem_ctrl.rdQLenPdf::28                       0                       # What read queue length does an incoming req see
system.mem_ctrl.rdQLenPdf::29                       0                       # What read queue length does an incoming req see
system.mem_ctrl.rdQLenPdf::30                       0                       # What read queue length does an incoming req see
system.mem_ctrl.rdQLenPdf::31                       0                       # What read queue length does an incoming req see
system.mem_ctrl.wrQLenPdf::0                        0                       # What write queue length does an incoming req see
system.mem_ctrl.wrQLenPdf::1                        0                       # What write queue length does an incoming req see
system.mem_ctrl.wrQLenPdf::2                        0                       # What write queue length does an incoming req see
system.mem_ctrl.wrQLenPdf::3                        0                       # What write queue length does an incoming req see
system.mem_ctrl.wrQLenPdf::4                        0                       # What write queue length does an incoming req see
system.mem_ctrl.wrQLenPdf::5                        0                       # What write queue length does an incoming req see
system.mem_ctrl.wrQLenPdf::6                        0                       # What write queue length does an incoming req see
system.mem_ctrl.wrQLenPdf::7                        0                       # What write queue length does an incoming req see
system.mem_ctrl.wrQLenPdf::8                        0                       # What write queue length does an incoming req see
system.mem_ctrl.wrQLenPdf::9                        0                       # What write queue length does an incoming req see
system.mem_ctrl.wrQLenPdf::10                       0                       # What write queue length does an incoming req see
system.mem_ctrl.wrQLenPdf::11                       0                       # What write queue length does an incoming req see
system.mem_ctrl.wrQLenPdf::12                       0                       # What write queue length does an incoming req see
system.mem_ctrl.wrQLenPdf::13                       0                       # What write queue length does an incoming req see
system.mem_ctrl.wrQLenPdf::14                       0                       # What write queue length does an incoming req see
system.mem_ctrl.wrQLenPdf::15                       0                       # What write queue length does an incoming req see
system.mem_ctrl.wrQLenPdf::16                       0                       # What write queue length does an incoming req see
system.mem_ctrl.wrQLenPdf::17                       0                       # What write queue length does an incoming req see
system.mem_ctrl.wrQLenPdf::18                       0                       # What write queue length does an incoming req see
system.mem_ctrl.wrQLenPdf::19                       0                       # What write queue length does an incoming req see
system.mem_ctrl.wrQLenPdf::20                       0                       # What write queue length does an incoming req see
system.mem_ctrl.wrQLenPdf::21                       0                       # What write queue length does an incoming req see
system.mem_ctrl.wrQLenPdf::22                       0                       # What write queue length does an incoming req see
system.mem_ctrl.wrQLenPdf::23                       0                       # What write queue length does an incoming req see
system.mem_ctrl.wrQLenPdf::24                       0                       # What write queue length does an incoming req see
system.mem_ctrl.wrQLenPdf::25                       0                       # What write queue length does an incoming req see
system.mem_ctrl.wrQLenPdf::26                       0                       # What write queue length does an incoming req see
system.mem_ctrl.wrQLenPdf::27                       0                       # What write queue length does an incoming req see
system.mem_ctrl.wrQLenPdf::28                       0                       # What write queue length does an incoming req see
system.mem_ctrl.wrQLenPdf::29                       0                       # What write queue length does an incoming req see
system.mem_ctrl.wrQLenPdf::30                       0                       # What write queue length does an incoming req see
system.mem_ctrl.wrQLenPdf::31                       0                       # What write queue length does an incoming req see
system.mem_ctrl.wrQLenPdf::32                       0                       # What write queue length does an incoming req see
system.mem_ctrl.wrQLenPdf::33                       0                       # What write queue length does an incoming req see
system.mem_ctrl.wrQLenPdf::34                       0                       # What write queue length does an incoming req see
system.mem_ctrl.wrQLenPdf::35                       0                       # What write queue length does an incoming req see
system.mem_ctrl.wrQLenPdf::36                       0                       # What write queue length does an incoming req see
system.mem_ctrl.wrQLenPdf::37                       0                       # What write queue length does an incoming req see
system.mem_ctrl.wrQLenPdf::38                       0                       # What write queue length does an incoming req see
system.mem_ctrl.wrQLenPdf::39                       0                       # What write queue length does an incoming req see
system.mem_ctrl.wrQLenPdf::40                       0                       # What write queue length does an incoming req see
system.mem_ctrl.wrQLenPdf::41                       0                       # What write queue length does an incoming req see
system.mem_ctrl.wrQLenPdf::42                       0                       # What write queue length does an incoming req see
system.mem_ctrl.wrQLenPdf::43                       0                       # What write queue length does an incoming req see
system.mem_ctrl.wrQLenPdf::44                       0                       # What write queue length does an incoming req see
system.mem_ctrl.wrQLenPdf::45                       0                       # What write queue length does an incoming req see
system.mem_ctrl.wrQLenPdf::46                       0                       # What write queue length does an incoming req see
system.mem_ctrl.wrQLenPdf::47                       0                       # What write queue length does an incoming req see
system.mem_ctrl.wrQLenPdf::48                       0                       # What write queue length does an incoming req see
system.mem_ctrl.wrQLenPdf::49                       0                       # What write queue length does an incoming req see
system.mem_ctrl.wrQLenPdf::50                       0                       # What write queue length does an incoming req see
system.mem_ctrl.wrQLenPdf::51                       0                       # What write queue length does an incoming req see
system.mem_ctrl.wrQLenPdf::52                       0                       # What write queue length does an incoming req see
system.mem_ctrl.wrQLenPdf::53                       0                       # What write queue length does an incoming req see
system.mem_ctrl.wrQLenPdf::54                       0                       # What write queue length does an incoming req see
system.mem_ctrl.wrQLenPdf::55                       0                       # What write queue length does an incoming req see
system.mem_ctrl.wrQLenPdf::56                       0                       # What write queue length does an incoming req see
system.mem_ctrl.wrQLenPdf::57                       0                       # What write queue length does an incoming req see
system.mem_ctrl.wrQLenPdf::58                       0                       # What write queue length does an incoming req see
system.mem_ctrl.wrQLenPdf::59                       0                       # What write queue length does an incoming req see
system.mem_ctrl.wrQLenPdf::60                       0                       # What write queue length does an incoming req see
system.mem_ctrl.wrQLenPdf::61                       0                       # What write queue length does an incoming req see
system.mem_ctrl.wrQLenPdf::62                       0                       # What write queue length does an incoming req see
system.mem_ctrl.wrQLenPdf::63                       0                       # What write queue length does an incoming req see
system.mem_ctrl.bytesPerActivate::samples          273                       # Bytes accessed per row activation
system.mem_ctrl.bytesPerActivate::mean     354.461538                       # Bytes accessed per row activation
system.mem_ctrl.bytesPerActivate::gmean    257.791377                       # Bytes accessed per row activation
system.mem_ctrl.bytesPerActivate::stdev    242.150247                       # Bytes accessed per row activation
system.mem_ctrl.bytesPerActivate::0-127            55     20.15%     20.15% # Bytes accessed per row activation
system.mem_ctrl.bytesPerActivate::128-255           51     18.68%     38.83% # Bytes accessed per row activation
system.mem_ctrl.bytesPerActivate::256-383           31     11.36%     50.18% # Bytes accessed per row activation
system.mem_ctrl.bytesPerActivate::384-511           26      9.52%     59.71% # Bytes accessed per row activation
system.mem_ctrl.bytesPerActivate::512-639           84     30.77%     90.48% # Bytes accessed per row activation
system.mem_ctrl.bytesPerActivate::640-767           13      4.76%     95.24% # Bytes accessed per row activation
system.mem_ctrl.bytesPerActivate::768-895            3      1.10%     96.34% # Bytes accessed per row activation
system.mem_ctrl.bytesPerActivate::896-1023            2      0.73%     97.07% # Bytes accessed per row activation
system.mem_ctrl.bytesPerActivate::1024-1151            8      2.93%    100.00% # Bytes accessed per row activation
system.mem_ctrl.bytesPerActivate::total           273                       # Bytes accessed per row activation
system.mem_ctrl.bytesReadDRAM                   97600                       # Total number of bytes read from DRAM
system.mem_ctrl.bytesReadWrQ                        0                       # Total number of bytes read from write queue
system.mem_ctrl.bytesWritten                        0                       # Total number of bytes written to DRAM
system.mem_ctrl.bytesReadSys                    97600                       # Total read bytes from the system interface side
system.mem_ctrl.bytesWrittenSys                     0                       # Total written bytes from the system interface side
system.mem_ctrl.avgRdBW                        146.75                       # Average DRAM read bandwidth in MiByte/s
system.mem_ctrl.avgWrBW                          0.00                       # Average achieved write bandwidth in MiByte/s
system.mem_ctrl.avgRdBWSys                     146.75                       # Average system read bandwidth in MiByte/s
system.mem_ctrl.avgWrBWSys                       0.00                       # Average system write bandwidth in MiByte/s
system.mem_ctrl.peakBW                       12800.00                       # Theoretical peak bandwidth in MiByte/s
system.mem_ctrl.busUtil                          1.15                       # Data bus utilization in percentage
system.mem_ctrl.busUtilRead                      1.15                       # Data bus utilization in percentage for reads
system.mem_ctrl.busUtilWrite                     0.00                       # Data bus utilization in percentage for writes
system.mem_ctrl.totGap                      665027500                       # Total gap between requests
system.mem_ctrl.avgGap                      436083.61                       # Average gap between requests
system.mem_ctrl.masterReadBytes::.cpu.inst        21312                       # Per-master bytes read from memory
system.mem_ctrl.masterReadBytes::.cpu.data        76288                       # Per-master bytes read from memory
system.mem_ctrl.masterReadRate::.cpu.inst 32044108.763827685267                       # Per-master bytes read from memory rate (Bytes/sec)
system.mem_ctrl.masterReadRate::.cpu.data 114704437.376824632287                       # Per-master bytes read from memory rate (Bytes/sec)
system.mem_ctrl.masterReadAccesses::.cpu.inst          333                       # Per-master read serviced memory accesses
system.mem_ctrl.masterReadAccesses::.cpu.data         1192                       # Per-master read serviced memory accesses
system.mem_ctrl.masterReadTotalLat::.cpu.inst      9615250                       # Per-master read total memory access latency
system.mem_ctrl.masterReadTotalLat::.cpu.data     31356250                       # Per-master read total memory access latency
system.mem_ctrl.masterReadAvgLat::.cpu.inst     28874.62                       # Per-master read average memory access latency
system.mem_ctrl.masterReadAvgLat::.cpu.data     26305.58                       # Per-master read average memory access latency
system.mem_ctrl.pageHitRate                     81.57                       # Row buffer hit rate, read and write combined
system.mem_ctrl.rank1.actEnergy                635460                       # Energy for activate commands per rank (pJ)
system.mem_ctrl.rank1.preEnergy                326370                       # Energy for precharge commands per rank (pJ)
system.mem_ctrl.rank1.readEnergy              2563260                       # Energy for read commands per rank (pJ)
system.mem_ctrl.rank1.writeEnergy                   0                       # Energy for write commands per rank (pJ)
system.mem_ctrl.rank1.refreshEnergy      52244400.000000                       # Energy for refresh commands per rank (pJ)
system.mem_ctrl.rank1.actBackEnergy          96484470                       # Energy for active background per rank (pJ)
system.mem_ctrl.rank1.preBackEnergy         174142080                       # Energy for precharge background per rank (pJ)
system.mem_ctrl.rank1.actPowerDownEnergy            0                       # Energy for active power-down per rank (pJ)
system.mem_ctrl.rank1.prePowerDownEnergy            0                       # Energy for precharge power-down per rank (pJ)
system.mem_ctrl.rank1.selfRefreshEnergy             0                       # Energy for self refresh per rank (pJ)
system.mem_ctrl.rank1.totalEnergy           326396040                       # Total energy per rank (pJ)
system.mem_ctrl.rank1.averagePower         490.759676                       # Core power per rank (mW)
system.mem_ctrl.rank1.totalIdleTime                 0                       # Total Idle time Per DRAM Rank
system.mem_ctrl.rank1.memoryStateTime::IDLE    451917750                       # Time in different power states
system.mem_ctrl.rank1.memoryStateTime::REF     22100000                       # Time in different power states
system.mem_ctrl.rank1.memoryStateTime::SREF            0                       # Time in different power states
system.mem_ctrl.rank1.memoryStateTime::PRE_PDN            0                       # Time in different power states
system.mem_ctrl.rank1.memoryStateTime::ACT    191065500                       # Time in different power states
system.mem_ctrl.rank1.memoryStateTime::ACT_PDN            0                       # Time in different power states
system.mem_ctrl.rank0.actEnergy               1370880                       # Energy for activate commands per rank (pJ)
system.mem_ctrl.rank0.preEnergy                709665                       # Energy for precharge commands per rank (pJ)
system.mem_ctrl.rank0.readEnergy              8325240                       # Energy for read commands per rank (pJ)
system.mem_ctrl.rank0.writeEnergy                   0                       # Energy for write commands per rank (pJ)
system.mem_ctrl.rank0.refreshEnergy      52244400.000000                       # Energy for refresh commands per rank (pJ)
system.mem_ctrl.rank0.actBackEnergy         219630120                       # Energy for active background per rank (pJ)
system.mem_ctrl.rank0.preBackEnergy          70440480                       # Energy for precharge background per rank (pJ)
system.mem_ctrl.rank0.actPowerDownEnergy            0                       # Energy for active power-down per rank (pJ)
system.mem_ctrl.rank0.prePowerDownEnergy            0                       # Energy for precharge power-down per rank (pJ)
system.mem_ctrl.rank0.selfRefreshEnergy             0                       # Energy for self refresh per rank (pJ)
system.mem_ctrl.rank0.totalEnergy           352720785                       # Total energy per rank (pJ)
system.mem_ctrl.rank0.averagePower         530.340803                       # Core power per rank (mW)
system.mem_ctrl.rank0.totalIdleTime                 0                       # Total Idle time Per DRAM Rank
system.mem_ctrl.rank0.memoryStateTime::IDLE    181301750                       # Time in different power states
system.mem_ctrl.rank0.memoryStateTime::REF     22100000                       # Time in different power states
system.mem_ctrl.rank0.memoryStateTime::SREF            0                       # Time in different power states
system.mem_ctrl.rank0.memoryStateTime::PRE_PDN            0                       # Time in different power states
system.mem_ctrl.rank0.memoryStateTime::ACT    461681500                       # Time in different power states
system.mem_ctrl.rank0.memoryStateTime::ACT_PDN            0                       # Time in different power states

---------- End Simulation Statistics   ----------
