
---------- Begin Simulation Statistics ----------
final_tick                                19550604000                       # Number of ticks from beginning of simulation (restored from checkpoints and never reset)
host_inst_rate                                 131917                       # Simulator instruction rate (inst/s)
host_mem_usage                                 798884                       # Number of bytes of host memory used
host_op_rate                                   262704                       # Simulator op (including micro ops) rate (op/s)
host_seconds                                    84.77                       # Real time elapsed on the host
host_tick_rate                              230623761                       # Simulator tick rate (ticks/s)
sim_freq                                 1000000000000                       # Frequency of simulated ticks
sim_insts                                    11182921                       # Number of instructions simulated
sim_ops                                      22270118                       # Number of ops (including micro ops) simulated
sim_seconds                                  0.019551                       # Number of seconds simulated
sim_ticks                                 19550604000                       # Number of ticks simulated
system.cpu.branchPred.BTBCorrect                    0                       # Number of correct BTB predictions (this stat may not work properly.
system.cpu.branchPred.BTBHitPct              0.000000                       # BTB Hit Percentage
system.cpu.branchPred.BTBHits                       0                       # Number of BTB hits
system.cpu.branchPred.BTBLookups              1621872                       # Number of BTB lookups
system.cpu.branchPred.RASInCorrect                  1                       # Number of incorrect RAS predictions.
system.cpu.branchPred.condIncorrect             25375                       # Number of conditional branches incorrect
system.cpu.branchPred.condPredicted           1646556                       # Number of conditional branches predicted
system.cpu.branchPred.indirectHits            1619043                       # Number of indirect target hits.
system.cpu.branchPred.indirectLookups         1621872                       # Number of indirect predictor lookups.
system.cpu.branchPred.indirectMisses             2829                       # Number of indirect misses.
system.cpu.branchPred.lookups                 1648064                       # Number of BP lookups
system.cpu.branchPred.usedRAS                     655                       # Number of times the RAS was used to get a target.
system.cpu.branchPredindirectMispredicted          538                       # Number of mispredicted indirect branches.
system.cpu.cc_regfile_reads                   8032322                       # number of cc regfile reads
system.cpu.cc_regfile_writes                  6526963                       # number of cc regfile writes
system.cpu.commit.amos                              0                       # Number of atomic instructions committed
system.cpu.commit.branchMispredicts             25378                       # The number of times a branch was mispredicted
system.cpu.commit.branches                    1598763                       # Number of branches committed
system.cpu.commit.bw_lim_events               2250598                       # number cycles where commit BW limit reached
system.cpu.commit.commitNonSpecStalls               8                       # The number of times commit has been forced to stall to communicate backwards
system.cpu.commit.commitSquashedInsts          316179                       # The number of squashed insts skipped by commit
system.cpu.commit.committedInsts             11182921                       # Number of instructions committed
system.cpu.commit.committedOps               22270118                       # Number of ops (including micro ops) committed
system.cpu.commit.committed_per_cycle::samples     19490068                       # Number of insts commited each cycle
system.cpu.commit.committed_per_cycle::mean     1.142639                       # Number of insts commited each cycle
system.cpu.commit.committed_per_cycle::stdev     2.620022                       # Number of insts commited each cycle
system.cpu.commit.committed_per_cycle::underflows            0      0.00%      0.00% # Number of insts commited each cycle
system.cpu.commit.committed_per_cycle::0     15385824     78.94%     78.94% # Number of insts commited each cycle
system.cpu.commit.committed_per_cycle::1      1065619      5.47%     84.41% # Number of insts commited each cycle
system.cpu.commit.committed_per_cycle::2       123422      0.63%     85.04% # Number of insts commited each cycle
system.cpu.commit.committed_per_cycle::3        96540      0.50%     85.54% # Number of insts commited each cycle
system.cpu.commit.committed_per_cycle::4       249710      1.28%     86.82% # Number of insts commited each cycle
system.cpu.commit.committed_per_cycle::5       254194      1.30%     88.12% # Number of insts commited each cycle
system.cpu.commit.committed_per_cycle::6        55686      0.29%     88.41% # Number of insts commited each cycle
system.cpu.commit.committed_per_cycle::7         8475      0.04%     88.45% # Number of insts commited each cycle
system.cpu.commit.committed_per_cycle::8      2250598     11.55%    100.00% # Number of insts commited each cycle
system.cpu.commit.committed_per_cycle::overflows            0      0.00%    100.00% # Number of insts commited each cycle
system.cpu.commit.committed_per_cycle::min_value            0                       # Number of insts commited each cycle
system.cpu.commit.committed_per_cycle::max_value            8                       # Number of insts commited each cycle
system.cpu.commit.committed_per_cycle::total     19490068                       # Number of insts commited each cycle
system.cpu.commit.fp_insts                    9411436                       # Number of committed floating point instructions.
system.cpu.commit.function_calls                   87                       # Number of function calls committed.
system.cpu.commit.int_insts                  16004073                       # Number of committed integer instructions.
system.cpu.commit.loads                       4718618                       # Number of loads committed
system.cpu.commit.membars                           0                       # Number of memory barriers committed
system.cpu.commit.op_class_0::No_OpClass           43      0.00%      0.00% # Class of committed instruction
system.cpu.commit.op_class_0::IntAlu         11308977     50.78%     50.78% # Class of committed instruction
system.cpu.commit.op_class_0::IntMult               5      0.00%     50.78% # Class of committed instruction
system.cpu.commit.op_class_0::IntDiv               21      0.00%     50.78% # Class of committed instruction
system.cpu.commit.op_class_0::FloatAdd        3096086     13.90%     64.68% # Class of committed instruction
system.cpu.commit.op_class_0::FloatCmp              0      0.00%     64.68% # Class of committed instruction
system.cpu.commit.op_class_0::FloatCvt              0      0.00%     64.68% # Class of committed instruction
system.cpu.commit.op_class_0::FloatMult             0      0.00%     64.68% # Class of committed instruction
system.cpu.commit.op_class_0::FloatMultAcc            0      0.00%     64.68% # Class of committed instruction
system.cpu.commit.op_class_0::FloatDiv              0      0.00%     64.68% # Class of committed instruction
system.cpu.commit.op_class_0::FloatMisc             0      0.00%     64.68% # Class of committed instruction
system.cpu.commit.op_class_0::FloatSqrt             0      0.00%     64.68% # Class of committed instruction
system.cpu.commit.op_class_0::SimdAdd               0      0.00%     64.68% # Class of committed instruction
system.cpu.commit.op_class_0::SimdAddAcc            0      0.00%     64.68% # Class of committed instruction
system.cpu.commit.op_class_0::SimdAlu              44      0.00%     64.68% # Class of committed instruction
system.cpu.commit.op_class_0::SimdCmp               0      0.00%     64.68% # Class of committed instruction
system.cpu.commit.op_class_0::SimdCvt              30      0.00%     64.68% # Class of committed instruction
system.cpu.commit.op_class_0::SimdMisc             44      0.00%     64.68% # Class of committed instruction
system.cpu.commit.op_class_0::SimdMult              0      0.00%     64.68% # Class of committed instruction
system.cpu.commit.op_class_0::SimdMultAcc            0      0.00%     64.68% # Class of committed instruction
system.cpu.commit.op_class_0::SimdShift             0      0.00%     64.68% # Class of committed instruction
system.cpu.commit.op_class_0::SimdShiftAcc            0      0.00%     64.68% # Class of committed instruction
system.cpu.commit.op_class_0::SimdDiv               0      0.00%     64.68% # Class of committed instruction
system.cpu.commit.op_class_0::SimdSqrt              0      0.00%     64.68% # Class of committed instruction
system.cpu.commit.op_class_0::SimdFloatAdd      1572618      7.06%     71.75% # Class of committed instruction
system.cpu.commit.op_class_0::SimdFloatAlu            0      0.00%     71.75% # Class of committed instruction
system.cpu.commit.op_class_0::SimdFloatCmp            0      0.00%     71.75% # Class of committed instruction
system.cpu.commit.op_class_0::SimdFloatCvt            0      0.00%     71.75% # Class of committed instruction
system.cpu.commit.op_class_0::SimdFloatDiv            0      0.00%     71.75% # Class of committed instruction
system.cpu.commit.op_class_0::SimdFloatMisc            0      0.00%     71.75% # Class of committed instruction
system.cpu.commit.op_class_0::SimdFloatMult      1548042      6.95%     78.70% # Class of committed instruction
system.cpu.commit.op_class_0::SimdFloatMultAcc            0      0.00%     78.70% # Class of committed instruction
system.cpu.commit.op_class_0::SimdFloatSqrt            0      0.00%     78.70% # Class of committed instruction
system.cpu.commit.op_class_0::SimdReduceAdd            0      0.00%     78.70% # Class of committed instruction
system.cpu.commit.op_class_0::SimdReduceAlu            0      0.00%     78.70% # Class of committed instruction
system.cpu.commit.op_class_0::SimdReduceCmp            0      0.00%     78.70% # Class of committed instruction
system.cpu.commit.op_class_0::SimdFloatReduceAdd            0      0.00%     78.70% # Class of committed instruction
system.cpu.commit.op_class_0::SimdFloatReduceCmp            0      0.00%     78.70% # Class of committed instruction
system.cpu.commit.op_class_0::SimdAes               0      0.00%     78.70% # Class of committed instruction
system.cpu.commit.op_class_0::SimdAesMix            0      0.00%     78.70% # Class of committed instruction
system.cpu.commit.op_class_0::SimdSha1Hash            0      0.00%     78.70% # Class of committed instruction
system.cpu.commit.op_class_0::SimdSha1Hash2            0      0.00%     78.70% # Class of committed instruction
system.cpu.commit.op_class_0::SimdSha256Hash            0      0.00%     78.70% # Class of committed instruction
system.cpu.commit.op_class_0::SimdSha256Hash2            0      0.00%     78.70% # Class of committed instruction
system.cpu.commit.op_class_0::SimdShaSigma2            0      0.00%     78.70% # Class of committed instruction
system.cpu.commit.op_class_0::SimdShaSigma3            0      0.00%     78.70% # Class of committed instruction
system.cpu.commit.op_class_0::SimdPredAlu            0      0.00%     78.70% # Class of committed instruction
system.cpu.commit.op_class_0::MemRead         1597932      7.18%     85.87% # Class of committed instruction
system.cpu.commit.op_class_0::MemWrite            862      0.00%     85.88% # Class of committed instruction
system.cpu.commit.op_class_0::FloatMemRead      3120686     14.01%     99.89% # Class of committed instruction
system.cpu.commit.op_class_0::FloatMemWrite        24728      0.11%    100.00% # Class of committed instruction
system.cpu.commit.op_class_0::IprAccess             0      0.00%    100.00% # Class of committed instruction
system.cpu.commit.op_class_0::InstPrefetch            0      0.00%    100.00% # Class of committed instruction
system.cpu.commit.op_class_0::total          22270118                       # Class of committed instruction
system.cpu.commit.refs                        4744208                       # Number of memory references committed
system.cpu.commit.swp_count                         0                       # Number of s/w prefetches committed
system.cpu.commit.vec_insts                         0                       # Number of committed Vector instructions.
system.cpu.committedInsts                    11182921                       # Number of Instructions Simulated
system.cpu.committedOps                      22270118                       # Number of Ops (including micro ops) Simulated
system.cpu.cpi                               1.748256                       # CPI: Cycles Per Instruction
system.cpu.cpi_total                         1.748256                       # CPI: Total CPI of All Threads
system.cpu.decode.BlockedCycles              13553826                       # Number of cycles decode is blocked
system.cpu.decode.DecodedInsts               22803885                       # Number of instructions handled by decode
system.cpu.decode.IdleCycles                  2785490                       # Number of cycles decode is idle
system.cpu.decode.RunCycles                   2363314                       # Number of cycles decode is running
system.cpu.decode.SquashCycles                  25386                       # Number of cycles decode is squashing
system.cpu.decode.UnblockCycles                808331                       # Number of cycles decode is unblocking
system.cpu.dtb.rdAccesses                     4861270                       # TLB accesses on read requests
system.cpu.dtb.rdMisses                        124889                       # TLB misses on read requests
system.cpu.dtb.wrAccesses                       26196                       # TLB accesses on write requests
system.cpu.dtb.wrMisses                            19                       # TLB misses on write requests
system.cpu.fetch.Branches                     1648064                       # Number of branches that fetch encountered
system.cpu.fetch.CacheLines                   3266494                       # Number of cache lines fetched
system.cpu.fetch.Cycles                      16216405                       # Number of cycles fetch has run and was not squashing or blocked
system.cpu.fetch.IcacheSquashes                  3871                       # Number of outstanding Icache misses that were squashed
system.cpu.fetch.IcacheWaitRetryStallCycles            5                       # Number of stall cycles due to full MSHR
system.cpu.fetch.Insts                       11599961                       # Number of instructions fetch has processed
system.cpu.fetch.MiscStallCycles                    8                       # Number of cycles fetch has spent waiting on interrupts, or bad addresses, or out of MSHRs
system.cpu.fetch.PendingQuiesceStallCycles           20                       # Number of stall cycles due to pending quiesce instructions
system.cpu.fetch.PendingTrapStallCycles            27                       # Number of stall cycles due to pending traps
system.cpu.fetch.SquashCycles                   50772                       # Number of cycles fetch has spent squashing
system.cpu.fetch.branchRate                  0.084297                       # Number of branch fetches per cycle
system.cpu.fetch.icacheStallCycles            3294496                       # Number of cycles fetch is stalled on an Icache miss
system.cpu.fetch.predictedBranches            1619698                       # Number of branches that fetch has predicted taken
system.cpu.fetch.rate                        0.593330                       # Number of inst fetches per cycle
system.cpu.fetch.rateDist::samples           19536347                       # Number of instructions fetched each cycle (Total)
system.cpu.fetch.rateDist::mean              1.182533                       # Number of instructions fetched each cycle (Total)
system.cpu.fetch.rateDist::stdev             2.619625                       # Number of instructions fetched each cycle (Total)
system.cpu.fetch.rateDist::underflows               0      0.00%      0.00% # Number of instructions fetched each cycle (Total)
system.cpu.fetch.rateDist::0                 16029679     82.05%     82.05% # Number of instructions fetched each cycle (Total)
system.cpu.fetch.rateDist::1                      390      0.00%     82.05% # Number of instructions fetched each cycle (Total)
system.cpu.fetch.rateDist::2                   200547      1.03%     83.08% # Number of instructions fetched each cycle (Total)
system.cpu.fetch.rateDist::3                      334      0.00%     83.08% # Number of instructions fetched each cycle (Total)
system.cpu.fetch.rateDist::4                   179907      0.92%     84.00% # Number of instructions fetched each cycle (Total)
system.cpu.fetch.rateDist::5                      779      0.00%     84.01% # Number of instructions fetched each cycle (Total)
system.cpu.fetch.rateDist::6                  1510536      7.73%     91.74% # Number of instructions fetched each cycle (Total)
system.cpu.fetch.rateDist::7                      255      0.00%     91.74% # Number of instructions fetched each cycle (Total)
system.cpu.fetch.rateDist::8                  1613920      8.26%    100.00% # Number of instructions fetched each cycle (Total)
system.cpu.fetch.rateDist::overflows                0      0.00%    100.00% # Number of instructions fetched each cycle (Total)
system.cpu.fetch.rateDist::min_value                0                       # Number of instructions fetched each cycle (Total)
system.cpu.fetch.rateDist::max_value                8                       # Number of instructions fetched each cycle (Total)
system.cpu.fetch.rateDist::total             19536347                       # Number of instructions fetched each cycle (Total)
system.cpu.fp_regfile_reads                   9486725                       # number of floating regfile reads
system.cpu.fp_regfile_writes                  9414265                       # number of floating regfile writes
system.cpu.idleCycles                           14258                       # Total number of cycles that the CPU has spent unscheduled due to idling
system.cpu.iew.branchMispredicts                25572                       # Number of branch mispredicts detected at execute
system.cpu.iew.exec_branches                  1602294                       # Number of branches executed
system.cpu.iew.exec_nop                             0                       # number of nop insts executed
system.cpu.iew.exec_rate                     1.375751                       # Inst execution rate
system.cpu.iew.exec_refs                      9275011                       # number of memory reference insts executed
system.cpu.iew.exec_stores                      26195                       # Number of stores executed
system.cpu.iew.exec_swp                             0                       # number of swp insts executed
system.cpu.iew.iewBlockCycles                 5609956                       # Number of cycles IEW is blocking
system.cpu.iew.iewDispLoadInsts               4791254                       # Number of dispatched load instructions
system.cpu.iew.iewDispNonSpecInsts                 35                       # Number of dispatched non-speculative instructions
system.cpu.iew.iewDispSquashedInsts             62599                       # Number of squashed instructions skipped by dispatch
system.cpu.iew.iewDispStoreInsts                26944                       # Number of dispatched store instructions
system.cpu.iew.iewDispatchedInsts            22585949                       # Number of instructions dispatched to IQ
system.cpu.iew.iewExecLoadInsts               9248816                       # Number of load instructions executed
system.cpu.iew.iewExecSquashedInsts             74480                       # Number of squashed instructions skipped in execute
system.cpu.iew.iewExecutedInsts              26896758                       # Number of executed instructions
system.cpu.iew.iewIQFullEvents                  95338                       # Number of times the IQ has become full, causing a stall
system.cpu.iew.iewIdleCycles                        0                       # Number of cycles IEW is idle
system.cpu.iew.iewLSQFullEvents               2324800                       # Number of times the LSQ has become full, causing a stall
system.cpu.iew.iewSquashCycles                  25386                       # Number of cycles IEW is squashing
system.cpu.iew.iewUnblockCycles               2506182                       # Number of cycles IEW is unblocking
system.cpu.iew.lsq.thread0.blockedLoads             0                       # Number of blocked loads due to partial load-store forwarding
system.cpu.iew.lsq.thread0.cacheBlocked        714047                       # Number of times an access to memory failed due to the cache being blocked
system.cpu.iew.lsq.thread0.forwLoads               61                       # Number of loads that had data forwarded from stores
system.cpu.iew.lsq.thread0.ignoredResponses            2                       # Number of memory responses ignored because the instruction is squashed
system.cpu.iew.lsq.thread0.invAddrLoads             0                       # Number of loads ignored due to an invalid address
system.cpu.iew.lsq.thread0.invAddrSwpfs             0                       # Number of software prefetches ignored due to an invalid address
system.cpu.iew.lsq.thread0.memOrderViolation            9                       # Number of memory ordering violations
system.cpu.iew.lsq.thread0.rescheduledLoads            2                       # Number of loads that were rescheduled
system.cpu.iew.lsq.thread0.squashedLoads        72636                       # Number of loads squashed
system.cpu.iew.lsq.thread0.squashedStores         1354                       # Number of stores squashed
system.cpu.iew.memOrderViolationEvents              9                       # Number of memory order violations
system.cpu.iew.predictedNotTakenIncorrect         1588                       # Number of branches that were predicted not taken incorrectly
system.cpu.iew.predictedTakenIncorrect          23984                       # Number of branches that were predicted taken incorrectly
system.cpu.iew.wb_consumers                  22815557                       # num instructions consuming a value
system.cpu.iew.wb_count                      22369241                       # cumulative count of insts written-back
system.cpu.iew.wb_fanout                     0.745278                       # average fanout of values written-back
system.cpu.iew.wb_producers                  17003934                       # num instructions producing a value
system.cpu.iew.wb_rate                       1.144171                       # insts written-back per cycle
system.cpu.iew.wb_sent                       22372928                       # cumulative count of insts sent to commit
system.cpu.int_regfile_reads                 29936845                       # number of integer regfile reads
system.cpu.int_regfile_writes                11329943                       # number of integer regfile writes
system.cpu.ipc                               0.571999                       # IPC: Instructions Per Cycle
system.cpu.ipc_total                         0.571999                       # IPC: Total IPC of All Threads
system.cpu.iq.FU_type_0::No_OpClass               295      0.00%      0.00% # Type of FU issued
system.cpu.iq.FU_type_0::IntAlu              11405578     42.29%     42.29% # Type of FU issued
system.cpu.iq.FU_type_0::IntMult                    5      0.00%     42.29% # Type of FU issued
system.cpu.iq.FU_type_0::IntDiv                    22      0.00%     42.29% # Type of FU issued
system.cpu.iq.FU_type_0::FloatAdd             3157427     11.71%     54.00% # Type of FU issued
system.cpu.iq.FU_type_0::FloatCmp                   0      0.00%     54.00% # Type of FU issued
system.cpu.iq.FU_type_0::FloatCvt                   0      0.00%     54.00% # Type of FU issued
system.cpu.iq.FU_type_0::FloatMult                  0      0.00%     54.00% # Type of FU issued
system.cpu.iq.FU_type_0::FloatMultAcc               0      0.00%     54.00% # Type of FU issued
system.cpu.iq.FU_type_0::FloatDiv                   0      0.00%     54.00% # Type of FU issued
system.cpu.iq.FU_type_0::FloatMisc                  0      0.00%     54.00% # Type of FU issued
system.cpu.iq.FU_type_0::FloatSqrt                  0      0.00%     54.00% # Type of FU issued
system.cpu.iq.FU_type_0::SimdAdd                    0      0.00%     54.00% # Type of FU issued
system.cpu.iq.FU_type_0::SimdAddAcc                 0      0.00%     54.00% # Type of FU issued
system.cpu.iq.FU_type_0::SimdAlu                   77      0.00%     54.00% # Type of FU issued
system.cpu.iq.FU_type_0::SimdCmp                    0      0.00%     54.00% # Type of FU issued
system.cpu.iq.FU_type_0::SimdCvt                   51      0.00%     54.00% # Type of FU issued
system.cpu.iq.FU_type_0::SimdMisc                  64      0.00%     54.00% # Type of FU issued
system.cpu.iq.FU_type_0::SimdMult                   0      0.00%     54.00% # Type of FU issued
system.cpu.iq.FU_type_0::SimdMultAcc                0      0.00%     54.00% # Type of FU issued
system.cpu.iq.FU_type_0::SimdShift                  0      0.00%     54.00% # Type of FU issued
system.cpu.iq.FU_type_0::SimdShiftAcc               0      0.00%     54.00% # Type of FU issued
system.cpu.iq.FU_type_0::SimdDiv                    0      0.00%     54.00% # Type of FU issued
system.cpu.iq.FU_type_0::SimdSqrt                   0      0.00%     54.00% # Type of FU issued
system.cpu.iq.FU_type_0::SimdFloatAdd         1572622      5.83%     59.83% # Type of FU issued
system.cpu.iq.FU_type_0::SimdFloatAlu               0      0.00%     59.83% # Type of FU issued
system.cpu.iq.FU_type_0::SimdFloatCmp               0      0.00%     59.83% # Type of FU issued
system.cpu.iq.FU_type_0::SimdFloatCvt               0      0.00%     59.83% # Type of FU issued
system.cpu.iq.FU_type_0::SimdFloatDiv               0      0.00%     59.83% # Type of FU issued
system.cpu.iq.FU_type_0::SimdFloatMisc              0      0.00%     59.83% # Type of FU issued
system.cpu.iq.FU_type_0::SimdFloatMult        1548043      5.74%     65.57% # Type of FU issued
system.cpu.iq.FU_type_0::SimdFloatMultAcc            0      0.00%     65.57% # Type of FU issued
system.cpu.iq.FU_type_0::SimdFloatSqrt              0      0.00%     65.57% # Type of FU issued
system.cpu.iq.FU_type_0::SimdReduceAdd              0      0.00%     65.57% # Type of FU issued
system.cpu.iq.FU_type_0::SimdReduceAlu              0      0.00%     65.57% # Type of FU issued
system.cpu.iq.FU_type_0::SimdReduceCmp              0      0.00%     65.57% # Type of FU issued
system.cpu.iq.FU_type_0::SimdFloatReduceAdd            0      0.00%     65.57% # Type of FU issued
system.cpu.iq.FU_type_0::SimdFloatReduceCmp            0      0.00%     65.57% # Type of FU issued
system.cpu.iq.FU_type_0::SimdAes                    0      0.00%     65.57% # Type of FU issued
system.cpu.iq.FU_type_0::SimdAesMix                 0      0.00%     65.57% # Type of FU issued
system.cpu.iq.FU_type_0::SimdSha1Hash               0      0.00%     65.57% # Type of FU issued
system.cpu.iq.FU_type_0::SimdSha1Hash2              0      0.00%     65.57% # Type of FU issued
system.cpu.iq.FU_type_0::SimdSha256Hash             0      0.00%     65.57% # Type of FU issued
system.cpu.iq.FU_type_0::SimdSha256Hash2            0      0.00%     65.57% # Type of FU issued
system.cpu.iq.FU_type_0::SimdShaSigma2              0      0.00%     65.57% # Type of FU issued
system.cpu.iq.FU_type_0::SimdShaSigma3              0      0.00%     65.57% # Type of FU issued
system.cpu.iq.FU_type_0::SimdPredAlu                0      0.00%     65.57% # Type of FU issued
system.cpu.iq.FU_type_0::MemRead              3088900     11.45%     77.02% # Type of FU issued
system.cpu.iq.FU_type_0::MemWrite                1594      0.01%     77.03% # Type of FU issued
system.cpu.iq.FU_type_0::FloatMemRead         6171830     22.88%     99.91% # Type of FU issued
system.cpu.iq.FU_type_0::FloatMemWrite          24730      0.09%    100.00% # Type of FU issued
system.cpu.iq.FU_type_0::IprAccess                  0      0.00%    100.00% # Type of FU issued
system.cpu.iq.FU_type_0::InstPrefetch               0      0.00%    100.00% # Type of FU issued
system.cpu.iq.FU_type_0::total               26971238                       # Type of FU issued
system.cpu.iq.fp_alu_accesses                13450358                       # Number of floating point alu accesses
system.cpu.iq.fp_inst_queue_reads            25985342                       # Number of floating instruction queue reads
system.cpu.iq.fp_inst_queue_wakeup_accesses      9437132                       # Number of floating instruction queue wakeup accesses
system.cpu.iq.fp_inst_queue_writes            9660150                       # Number of floating instruction queue writes
system.cpu.iq.fu_busy_cnt                     1646405                       # FU busy when requested
system.cpu.iq.fu_busy_rate                   0.061043                       # FU busy rate (busy events/executed inst)
system.cpu.iq.fu_full::No_OpClass                   0      0.00%      0.00% # attempts to use FU when none available
system.cpu.iq.fu_full::IntAlu                   95636      5.81%      5.81% # attempts to use FU when none available
system.cpu.iq.fu_full::IntMult                      0      0.00%      5.81% # attempts to use FU when none available
system.cpu.iq.fu_full::IntDiv                       0      0.00%      5.81% # attempts to use FU when none available
system.cpu.iq.fu_full::FloatAdd                     0      0.00%      5.81% # attempts to use FU when none available
system.cpu.iq.fu_full::FloatCmp                     0      0.00%      5.81% # attempts to use FU when none available
system.cpu.iq.fu_full::FloatCvt                     0      0.00%      5.81% # attempts to use FU when none available
system.cpu.iq.fu_full::FloatMult                    0      0.00%      5.81% # attempts to use FU when none available
system.cpu.iq.fu_full::FloatMultAcc                 0      0.00%      5.81% # attempts to use FU when none available
system.cpu.iq.fu_full::FloatDiv                     0      0.00%      5.81% # attempts to use FU when none available
system.cpu.iq.fu_full::FloatMisc                    0      0.00%      5.81% # attempts to use FU when none available
system.cpu.iq.fu_full::FloatSqrt                    0      0.00%      5.81% # attempts to use FU when none available
system.cpu.iq.fu_full::SimdAdd                      0      0.00%      5.81% # attempts to use FU when none available
system.cpu.iq.fu_full::SimdAddAcc                   0      0.00%      5.81% # attempts to use FU when none available
system.cpu.iq.fu_full::SimdAlu                      7      0.00%      5.81% # attempts to use FU when none available
system.cpu.iq.fu_full::SimdCmp                      0      0.00%      5.81% # attempts to use FU when none available
system.cpu.iq.fu_full::SimdCvt                      2      0.00%      5.81% # attempts to use FU when none available
system.cpu.iq.fu_full::SimdMisc                     0      0.00%      5.81% # attempts to use FU when none available
system.cpu.iq.fu_full::SimdMult                     0      0.00%      5.81% # attempts to use FU when none available
system.cpu.iq.fu_full::SimdMultAcc                  0      0.00%      5.81% # attempts to use FU when none available
system.cpu.iq.fu_full::SimdShift                    0      0.00%      5.81% # attempts to use FU when none available
system.cpu.iq.fu_full::SimdShiftAcc                 0      0.00%      5.81% # attempts to use FU when none available
system.cpu.iq.fu_full::SimdDiv                      0      0.00%      5.81% # attempts to use FU when none available
system.cpu.iq.fu_full::SimdSqrt                     0      0.00%      5.81% # attempts to use FU when none available
system.cpu.iq.fu_full::SimdFloatAdd                 0      0.00%      5.81% # attempts to use FU when none available
system.cpu.iq.fu_full::SimdFloatAlu                 0      0.00%      5.81% # attempts to use FU when none available
system.cpu.iq.fu_full::SimdFloatCmp                 0      0.00%      5.81% # attempts to use FU when none available
system.cpu.iq.fu_full::SimdFloatCvt                 0      0.00%      5.81% # attempts to use FU when none available
system.cpu.iq.fu_full::SimdFloatDiv                 0      0.00%      5.81% # attempts to use FU when none available
system.cpu.iq.fu_full::SimdFloatMisc                0      0.00%      5.81% # attempts to use FU when none available
system.cpu.iq.fu_full::SimdFloatMult            45552      2.77%      8.58% # attempts to use FU when none available
system.cpu.iq.fu_full::SimdFloatMultAcc             0      0.00%      8.58% # attempts to use FU when none available
system.cpu.iq.fu_full::SimdFloatSqrt                0      0.00%      8.58% # attempts to use FU when none available
system.cpu.iq.fu_full::SimdReduceAdd                0      0.00%      8.58% # attempts to use FU when none available
system.cpu.iq.fu_full::SimdReduceAlu                0      0.00%      8.58% # attempts to use FU when none available
system.cpu.iq.fu_full::SimdReduceCmp                0      0.00%      8.58% # attempts to use FU when none available
system.cpu.iq.fu_full::SimdFloatReduceAdd            0      0.00%      8.58% # attempts to use FU when none available
system.cpu.iq.fu_full::SimdFloatReduceCmp            0      0.00%      8.58% # attempts to use FU when none available
system.cpu.iq.fu_full::SimdAes                      0      0.00%      8.58% # attempts to use FU when none available
system.cpu.iq.fu_full::SimdAesMix                   0      0.00%      8.58% # attempts to use FU when none available
system.cpu.iq.fu_full::SimdSha1Hash                 0      0.00%      8.58% # attempts to use FU when none available
system.cpu.iq.fu_full::SimdSha1Hash2                0      0.00%      8.58% # attempts to use FU when none available
system.cpu.iq.fu_full::SimdSha256Hash               0      0.00%      8.58% # attempts to use FU when none available
system.cpu.iq.fu_full::SimdSha256Hash2              0      0.00%      8.58% # attempts to use FU when none available
system.cpu.iq.fu_full::SimdShaSigma2                0      0.00%      8.58% # attempts to use FU when none available
system.cpu.iq.fu_full::SimdShaSigma3                0      0.00%      8.58% # attempts to use FU when none available
system.cpu.iq.fu_full::SimdPredAlu                  0      0.00%      8.58% # attempts to use FU when none available
system.cpu.iq.fu_full::MemRead                 625082     37.97%     46.54% # attempts to use FU when none available
system.cpu.iq.fu_full::MemWrite                     0      0.00%     46.54% # attempts to use FU when none available
system.cpu.iq.fu_full::FloatMemRead            880122     53.46%    100.00% # attempts to use FU when none available
system.cpu.iq.fu_full::FloatMemWrite                4      0.00%    100.00% # attempts to use FU when none available
system.cpu.iq.fu_full::IprAccess                    0      0.00%    100.00% # attempts to use FU when none available
system.cpu.iq.fu_full::InstPrefetch                 0      0.00%    100.00% # attempts to use FU when none available
system.cpu.iq.int_alu_accesses               15166990                       # Number of integer alu accesses
system.cpu.iq.int_inst_queue_reads           49160525                       # Number of integer instruction queue reads
system.cpu.iq.int_inst_queue_wakeup_accesses     12932109                       # Number of integer instruction queue wakeup accesses
system.cpu.iq.int_inst_queue_writes          13241638                       # Number of integer instruction queue writes
system.cpu.iq.iqInstsAdded                   22585875                       # Number of instructions added to the IQ (excludes non-spec)
system.cpu.iq.iqInstsIssued                  26971238                       # Number of instructions issued
system.cpu.iq.iqNonSpecInstsAdded                  74                       # Number of non-speculative instructions added to the IQ
system.cpu.iq.iqSquashedInstsExamined          315830                       # Number of squashed instructions iterated over during squash; mainly for profiling
system.cpu.iq.iqSquashedInstsIssued             20639                       # Number of squashed instructions issued
system.cpu.iq.iqSquashedNonSpecRemoved             66                       # Number of squashed non-spec instructions that were removed
system.cpu.iq.iqSquashedOperandsExamined       417396                       # Number of squashed operands that are examined and possibly removed from graph
system.cpu.iq.issued_per_cycle::samples      19536347                       # Number of insts issued each cycle
system.cpu.iq.issued_per_cycle::mean         1.380567                       # Number of insts issued each cycle
system.cpu.iq.issued_per_cycle::stdev        2.038677                       # Number of insts issued each cycle
system.cpu.iq.issued_per_cycle::underflows            0      0.00%      0.00% # Number of insts issued each cycle
system.cpu.iq.issued_per_cycle::0            10537373     53.94%     53.94% # Number of insts issued each cycle
system.cpu.iq.issued_per_cycle::1             3160140     16.18%     70.11% # Number of insts issued each cycle
system.cpu.iq.issued_per_cycle::2             1618450      8.28%     78.40% # Number of insts issued each cycle
system.cpu.iq.issued_per_cycle::3              836749      4.28%     82.68% # Number of insts issued each cycle
system.cpu.iq.issued_per_cycle::4             1018276      5.21%     87.89% # Number of insts issued each cycle
system.cpu.iq.issued_per_cycle::5             1017656      5.21%     93.10% # Number of insts issued each cycle
system.cpu.iq.issued_per_cycle::6              733497      3.75%     96.86% # Number of insts issued each cycle
system.cpu.iq.issued_per_cycle::7              412063      2.11%     98.97% # Number of insts issued each cycle
system.cpu.iq.issued_per_cycle::8              202143      1.03%    100.00% # Number of insts issued each cycle
system.cpu.iq.issued_per_cycle::overflows            0      0.00%    100.00% # Number of insts issued each cycle
system.cpu.iq.issued_per_cycle::min_value            0                       # Number of insts issued each cycle
system.cpu.iq.issued_per_cycle::max_value            8                       # Number of insts issued each cycle
system.cpu.iq.issued_per_cycle::total        19536347                       # Number of insts issued each cycle
system.cpu.iq.rate                           1.379560                       # Inst issue rate
system.cpu.iq.vec_alu_accesses                      0                       # Number of vector alu accesses
system.cpu.iq.vec_inst_queue_reads                  0                       # Number of vector instruction queue reads
system.cpu.iq.vec_inst_queue_wakeup_accesses            0                       # Number of vector instruction queue wakeup accesses
system.cpu.iq.vec_inst_queue_writes                 0                       # Number of vector instruction queue writes
system.cpu.itb.rdAccesses                           0                       # TLB accesses on read requests
system.cpu.itb.rdMisses                             0                       # TLB misses on read requests
system.cpu.itb.wrAccesses                     3266501                       # TLB accesses on write requests
system.cpu.itb.wrMisses                            36                       # TLB misses on write requests
system.cpu.memDep0.conflictingLoads               806                       # Number of conflicting loads.
system.cpu.memDep0.conflictingStores              796                       # Number of conflicting stores.
system.cpu.memDep0.insertedLoads              4791254                       # Number of loads inserted to the mem dependence unit.
system.cpu.memDep0.insertedStores               26944                       # Number of stores inserted to the mem dependence unit.
system.cpu.misc_regfile_reads                12485858                       # number of misc regfile reads
system.cpu.misc_regfile_writes                      1                       # number of misc regfile writes
system.cpu.numCycles                         19550605                       # number of cpu cycles simulated
system.cpu.numWorkItemsCompleted                    0                       # number of work items this cpu completed
system.cpu.numWorkItemsStarted                      0                       # number of work items this cpu started
system.cpu.rename.BlockCycles                 8872365                       # Number of cycles rename is blocking
system.cpu.rename.CommittedMaps              27132083                       # Number of HB maps that are committed
system.cpu.rename.IQFullEvents                1871750                       # Number of times rename has blocked due to IQ full
system.cpu.rename.IdleCycles                  2983446                       # Number of cycles rename is idle
system.cpu.rename.LQFullEvents                3536302                       # Number of times rename has blocked due to LQ full
system.cpu.rename.ROBFullEvents                 25722                       # Number of times rename has blocked due to ROB full
system.cpu.rename.RenameLookups              47148308                       # Number of register rename lookups that rename has made
system.cpu.rename.RenamedInsts               22727301                       # Number of instructions processed by rename
system.cpu.rename.RenamedOperands            27700278                       # Number of destination operands rename has renamed
system.cpu.rename.RunCycles                   2892110                       # Number of cycles rename is running
system.cpu.rename.SQFullEvents                   2822                       # Number of times rename has blocked due to SQ full
system.cpu.rename.SquashCycles                  25386                       # Number of cycles rename is squashing
system.cpu.rename.UnblockCycles               4762031                       # Number of cycles rename is unblocking
system.cpu.rename.UndoneMaps                   568195                       # Number of HB maps that are undone due to squashing
system.cpu.rename.fp_rename_lookups           9642819                       # Number of floating rename lookups
system.cpu.rename.int_rename_lookups         21262009                       # Number of integer rename lookups
system.cpu.rename.serializeStallCycles           1009                       # count of cycles rename stalled for serializing inst
system.cpu.rename.serializingInsts                 23                       # count of serializing insts renamed
system.cpu.rename.skidInsts                   4452185                       # count of insts added to the skid buffer
system.cpu.rename.tempSerializingInsts             16                       # count of temporary serializing insts renamed
system.cpu.rob.rob_reads                     39825767                       # The number of ROB reads
system.cpu.rob.rob_writes                    45218908                       # The number of ROB writes
system.cpu.timesIdled                             180                       # Number of times that the entire CPU went into an idle state and unscheduled itself
system.cpu.workload.numSyscalls                     7                       # Number of system calls
system.l2bus.snoop_filter.hit_multi_requests            1                       # Number of requests hitting in the snoop filter with multiple (>1) holders of the requested data.
system.l2bus.snoop_filter.hit_multi_snoops            0                       # Number of snoops hitting in the snoop filter with multiple (>1) holders of the requested data.
system.l2bus.snoop_filter.hit_single_requests      1134156                       # Number of requests hitting in the snoop filter with a single holder of the requested data.
system.l2bus.snoop_filter.hit_single_snoops          293                       # Number of snoops hitting in the snoop filter with a single holder of the requested data.
system.l2bus.snoop_filter.tot_requests        2270676                       # Total number of requests made to the snoop filter.
system.l2bus.snoop_filter.tot_snoops              293                       # Total number of snoops made to the snoop filter.
system.membus.snoop_filter.hit_multi_requests            0                       # Number of requests hitting in the snoop filter with multiple (>1) holders of the requested data.
system.membus.snoop_filter.hit_multi_snoops            0                       # Number of snoops hitting in the snoop filter with multiple (>1) holders of the requested data.
system.membus.snoop_filter.hit_single_requests       184500                       # Number of requests hitting in the snoop filter with a single holder of the requested data.
system.membus.snoop_filter.hit_single_snoops            0                       # Number of snoops hitting in the snoop filter with a single holder of the requested data.
system.membus.snoop_filter.tot_requests        385677                       # Total number of requests made to the snoop filter.
system.membus.snoop_filter.tot_snoops               0                       # Total number of snoops made to the snoop filter.
system.membus.pwrStateResidencyTicks::UNDEFINED  19550604000                       # Cumulative time (in ticks) in various power states
system.membus.trans_dist::ReadResp             201086                       # Transaction distribution
system.membus.trans_dist::WritebackDirty         1553                       # Transaction distribution
system.membus.trans_dist::CleanEvict           182947                       # Transaction distribution
system.membus.trans_dist::ReadExReq                91                       # Transaction distribution
system.membus.trans_dist::ReadExResp               91                       # Transaction distribution
system.membus.trans_dist::ReadSharedReq        201086                       # Transaction distribution
system.membus.pkt_count_system.l2cache.mem_side::system.mem_ctrl.port       586854                       # Packet count per connected master and slave (bytes)
system.membus.pkt_count_system.l2cache.mem_side::total       586854                       # Packet count per connected master and slave (bytes)
system.membus.pkt_count::total                 586854                       # Packet count per connected master and slave (bytes)
system.membus.pkt_size_system.l2cache.mem_side::system.mem_ctrl.port     12974720                       # Cumulative packet size per connected master and slave (bytes)
system.membus.pkt_size_system.l2cache.mem_side::total     12974720                       # Cumulative packet size per connected master and slave (bytes)
system.membus.pkt_size::total                12974720                       # Cumulative packet size per connected master and slave (bytes)
system.membus.snoops                                0                       # Total snoops (count)
system.membus.snoopTraffic                          0                       # Total snoop traffic (bytes)
system.membus.snoop_fanout::samples            201177                       # Request fanout histogram
system.membus.snoop_fanout::mean                    0                       # Request fanout histogram
system.membus.snoop_fanout::stdev                   0                       # Request fanout histogram
system.membus.snoop_fanout::underflows              0      0.00%      0.00% # Request fanout histogram
system.membus.snoop_fanout::0                  201177    100.00%    100.00% # Request fanout histogram
system.membus.snoop_fanout::1                       0      0.00%    100.00% # Request fanout histogram
system.membus.snoop_fanout::overflows               0      0.00%    100.00% # Request fanout histogram
system.membus.snoop_fanout::min_value               0                       # Request fanout histogram
system.membus.snoop_fanout::max_value               0                       # Request fanout histogram
system.membus.snoop_fanout::total              201177                       # Request fanout histogram
system.membus.reqLayer2.occupancy           391889000                       # Layer occupancy (ticks)
system.membus.reqLayer2.utilization               2.0                       # Layer utilization (%)
system.membus.respLayer0.occupancy         1009592500                       # Layer occupancy (ticks)
system.membus.respLayer0.utilization              5.2                       # Layer utilization (%)
system.l2bus.pwrStateResidencyTicks::UNDEFINED  19550604000                       # Cumulative time (in ticks) in various power states
system.l2bus.trans_dist::ReadResp             1136428                       # Transaction distribution
system.l2bus.trans_dist::WritebackDirty          3263                       # Transaction distribution
system.l2bus.trans_dist::CleanEvict           1315686                       # Transaction distribution
system.l2bus.trans_dist::ReadExReq                 91                       # Transaction distribution
system.l2bus.trans_dist::ReadExResp                91                       # Transaction distribution
system.l2bus.trans_dist::ReadSharedReq        1136429                       # Transaction distribution
system.l2bus.pkt_count_system.cpu.icache.mem_side::system.l2cache.cpu_side          631                       # Packet count per connected master and slave (bytes)
system.l2bus.pkt_count_system.cpu.dcache.mem_side::system.l2cache.cpu_side      3406564                       # Packet count per connected master and slave (bytes)
system.l2bus.pkt_count::total                 3407195                       # Packet count per connected master and slave (bytes)
system.l2bus.pkt_size_system.cpu.icache.mem_side::system.l2cache.cpu_side        20160                       # Cumulative packet size per connected master and slave (bytes)
system.l2bus.pkt_size_system.cpu.dcache.mem_side::system.l2cache.cpu_side     72826496                       # Cumulative packet size per connected master and slave (bytes)
system.l2bus.pkt_size::total                 72846656                       # Cumulative packet size per connected master and slave (bytes)
system.l2bus.snoops                            184793                       # Total snoops (count)
system.l2bus.snoopTraffic                       99392                       # Total snoop traffic (bytes)
system.l2bus.snoop_fanout::samples            1321313                       # Request fanout histogram
system.l2bus.snoop_fanout::mean              0.000223                       # Request fanout histogram
system.l2bus.snoop_fanout::stdev             0.014915                       # Request fanout histogram
system.l2bus.snoop_fanout::underflows               0      0.00%      0.00% # Request fanout histogram
system.l2bus.snoop_fanout::0                  1321019     99.98%     99.98% # Request fanout histogram
system.l2bus.snoop_fanout::1                      294      0.02%    100.00% # Request fanout histogram
system.l2bus.snoop_fanout::2                        0      0.00%    100.00% # Request fanout histogram
system.l2bus.snoop_fanout::overflows                0      0.00%    100.00% # Request fanout histogram
system.l2bus.snoop_fanout::min_value                0                       # Request fanout histogram
system.l2bus.snoop_fanout::max_value                1                       # Request fanout histogram
system.l2bus.snoop_fanout::total              1321313                       # Request fanout histogram
system.l2bus.respLayer1.occupancy          3408612000                       # Layer occupancy (ticks)
system.l2bus.respLayer1.utilization              17.4                       # Layer utilization (%)
system.l2bus.reqLayer0.occupancy           2274096000                       # Layer occupancy (ticks)
system.l2bus.reqLayer0.utilization               11.6                       # Layer utilization (%)
system.l2bus.respLayer0.occupancy              945000                       # Layer occupancy (ticks)
system.l2bus.respLayer0.utilization               0.0                       # Layer utilization (%)
system.clk_domain.clock                          1000                       # Clock period in ticks
system.clk_domain.voltage_domain.voltage            1                       # Voltage in Volts
system.cpu.pwrStateResidencyTicks::ON     19550604000                       # Cumulative time (in ticks) in various power states
system.cpu.icache.pwrStateResidencyTicks::UNDEFINED  19550604000                       # Cumulative time (in ticks) in various power states
system.cpu.icache.demand_hits::.cpu.inst      3266064                       # number of demand (read+write) hits
system.cpu.icache.demand_hits::total          3266064                       # number of demand (read+write) hits
system.cpu.icache.overall_hits::.cpu.inst      3266064                       # number of overall hits
system.cpu.icache.overall_hits::total         3266064                       # number of overall hits
system.cpu.icache.demand_misses::.cpu.inst          430                       # number of demand (read+write) misses
system.cpu.icache.demand_misses::total            430                       # number of demand (read+write) misses
system.cpu.icache.overall_misses::.cpu.inst          430                       # number of overall misses
system.cpu.icache.overall_misses::total           430                       # number of overall misses
system.cpu.icache.demand_miss_latency::.cpu.inst     44589999                       # number of demand (read+write) miss cycles
system.cpu.icache.demand_miss_latency::total     44589999                       # number of demand (read+write) miss cycles
system.cpu.icache.overall_miss_latency::.cpu.inst     44589999                       # number of overall miss cycles
system.cpu.icache.overall_miss_latency::total     44589999                       # number of overall miss cycles
system.cpu.icache.demand_accesses::.cpu.inst      3266494                       # number of demand (read+write) accesses
system.cpu.icache.demand_accesses::total      3266494                       # number of demand (read+write) accesses
system.cpu.icache.overall_accesses::.cpu.inst      3266494                       # number of overall (read+write) accesses
system.cpu.icache.overall_accesses::total      3266494                       # number of overall (read+write) accesses
system.cpu.icache.demand_miss_rate::.cpu.inst     0.000132                       # miss rate for demand accesses
system.cpu.icache.demand_miss_rate::total     0.000132                       # miss rate for demand accesses
system.cpu.icache.overall_miss_rate::.cpu.inst     0.000132                       # miss rate for overall accesses
system.cpu.icache.overall_miss_rate::total     0.000132                       # miss rate for overall accesses
system.cpu.icache.demand_avg_miss_latency::.cpu.inst 103697.672093                       # average overall miss latency
system.cpu.icache.demand_avg_miss_latency::total 103697.672093                       # average overall miss latency
system.cpu.icache.overall_avg_miss_latency::.cpu.inst 103697.672093                       # average overall miss latency
system.cpu.icache.overall_avg_miss_latency::total 103697.672093                       # average overall miss latency
system.cpu.icache.blocked_cycles::no_mshrs          167                       # number of cycles access was blocked
system.cpu.icache.blocked_cycles::no_targets            0                       # number of cycles access was blocked
system.cpu.icache.blocked::no_mshrs                 4                       # number of cycles access was blocked
system.cpu.icache.blocked::no_targets               0                       # number of cycles access was blocked
system.cpu.icache.avg_blocked_cycles::no_mshrs    41.750000                       # average number of cycles each access was blocked
system.cpu.icache.avg_blocked_cycles::no_targets          nan                       # average number of cycles each access was blocked
system.cpu.icache.demand_mshr_hits::.cpu.inst          114                       # number of demand (read+write) MSHR hits
system.cpu.icache.demand_mshr_hits::total          114                       # number of demand (read+write) MSHR hits
system.cpu.icache.overall_mshr_hits::.cpu.inst          114                       # number of overall MSHR hits
system.cpu.icache.overall_mshr_hits::total          114                       # number of overall MSHR hits
system.cpu.icache.demand_mshr_misses::.cpu.inst          316                       # number of demand (read+write) MSHR misses
system.cpu.icache.demand_mshr_misses::total          316                       # number of demand (read+write) MSHR misses
system.cpu.icache.overall_mshr_misses::.cpu.inst          316                       # number of overall MSHR misses
system.cpu.icache.overall_mshr_misses::total          316                       # number of overall MSHR misses
system.cpu.icache.demand_mshr_miss_latency::.cpu.inst     34718999                       # number of demand (read+write) MSHR miss cycles
system.cpu.icache.demand_mshr_miss_latency::total     34718999                       # number of demand (read+write) MSHR miss cycles
system.cpu.icache.overall_mshr_miss_latency::.cpu.inst     34718999                       # number of overall MSHR miss cycles
system.cpu.icache.overall_mshr_miss_latency::total     34718999                       # number of overall MSHR miss cycles
system.cpu.icache.demand_mshr_miss_rate::.cpu.inst     0.000097                       # mshr miss rate for demand accesses
system.cpu.icache.demand_mshr_miss_rate::total     0.000097                       # mshr miss rate for demand accesses
system.cpu.icache.overall_mshr_miss_rate::.cpu.inst     0.000097                       # mshr miss rate for overall accesses
system.cpu.icache.overall_mshr_miss_rate::total     0.000097                       # mshr miss rate for overall accesses
system.cpu.icache.demand_avg_mshr_miss_latency::.cpu.inst 109870.250000                       # average overall mshr miss latency
system.cpu.icache.demand_avg_mshr_miss_latency::total 109870.250000                       # average overall mshr miss latency
system.cpu.icache.overall_avg_mshr_miss_latency::.cpu.inst 109870.250000                       # average overall mshr miss latency
system.cpu.icache.overall_avg_mshr_miss_latency::total 109870.250000                       # average overall mshr miss latency
system.cpu.icache.replacements                      0                       # number of replacements
system.cpu.icache.ReadReq_hits::.cpu.inst      3266064                       # number of ReadReq hits
system.cpu.icache.ReadReq_hits::total         3266064                       # number of ReadReq hits
system.cpu.icache.ReadReq_misses::.cpu.inst          430                       # number of ReadReq misses
system.cpu.icache.ReadReq_misses::total           430                       # number of ReadReq misses
system.cpu.icache.ReadReq_miss_latency::.cpu.inst     44589999                       # number of ReadReq miss cycles
system.cpu.icache.ReadReq_miss_latency::total     44589999                       # number of ReadReq miss cycles
system.cpu.icache.ReadReq_accesses::.cpu.inst      3266494                       # number of ReadReq accesses(hits+misses)
system.cpu.icache.ReadReq_accesses::total      3266494                       # number of ReadReq accesses(hits+misses)
system.cpu.icache.ReadReq_miss_rate::.cpu.inst     0.000132                       # miss rate for ReadReq accesses
system.cpu.icache.ReadReq_miss_rate::total     0.000132                       # miss rate for ReadReq accesses
system.cpu.icache.ReadReq_avg_miss_latency::.cpu.inst 103697.672093                       # average ReadReq miss latency
system.cpu.icache.ReadReq_avg_miss_latency::total 103697.672093                       # average ReadReq miss latency
system.cpu.icache.ReadReq_mshr_hits::.cpu.inst          114                       # number of ReadReq MSHR hits
system.cpu.icache.ReadReq_mshr_hits::total          114                       # number of ReadReq MSHR hits
system.cpu.icache.ReadReq_mshr_misses::.cpu.inst          316                       # number of ReadReq MSHR misses
system.cpu.icache.ReadReq_mshr_misses::total          316                       # number of ReadReq MSHR misses
system.cpu.icache.ReadReq_mshr_miss_latency::.cpu.inst     34718999                       # number of ReadReq MSHR miss cycles
system.cpu.icache.ReadReq_mshr_miss_latency::total     34718999                       # number of ReadReq MSHR miss cycles
system.cpu.icache.ReadReq_mshr_miss_rate::.cpu.inst     0.000097                       # mshr miss rate for ReadReq accesses
system.cpu.icache.ReadReq_mshr_miss_rate::total     0.000097                       # mshr miss rate for ReadReq accesses
system.cpu.icache.ReadReq_avg_mshr_miss_latency::.cpu.inst 109870.250000                       # average ReadReq mshr miss latency
system.cpu.icache.ReadReq_avg_mshr_miss_latency::total 109870.250000                       # average ReadReq mshr miss latency
system.cpu.icache.tags.pwrStateResidencyTicks::UNDEFINED  19550604000                       # Cumulative time (in ticks) in various power states
system.cpu.icache.tags.tagsinuse           292.746744                       # Cycle average of tags in use
system.cpu.icache.tags.total_refs             3266379                       # Total number of references to valid blocks.
system.cpu.icache.tags.sampled_refs               315                       # Sample count of references to valid blocks.
system.cpu.icache.tags.avg_refs          10369.457143                       # Average number of references to valid blocks.
system.cpu.icache.tags.warmup_cycle            112000                       # Cycle when the warmup percentage was hit.
system.cpu.icache.tags.occ_blocks::.cpu.inst   292.746744                       # Average occupied blocks per requestor
system.cpu.icache.tags.occ_percent::.cpu.inst     0.142943                       # Average percentage of cache occupancy
system.cpu.icache.tags.occ_percent::total     0.142943                       # Average percentage of cache occupancy
system.cpu.icache.tags.occ_task_id_blocks::1024          315                       # Occupied blocks per task id
system.cpu.icache.tags.age_task_id_blocks_1024::0           22                       # Occupied blocks per task id
system.cpu.icache.tags.age_task_id_blocks_1024::4          293                       # Occupied blocks per task id
system.cpu.icache.tags.occ_task_id_percent::1024     0.153809                       # Percentage of cache occupancy per task id
system.cpu.icache.tags.tag_accesses           6533303                       # Number of tag accesses
system.cpu.icache.tags.data_accesses          6533303                       # Number of data accesses
system.cpu.dtb.walker.pwrStateResidencyTicks::UNDEFINED  19550604000                       # Cumulative time (in ticks) in various power states
system.cpu.interrupts.clk_domain.clock          16000                       # Clock period in ticks
system.cpu.itb.walker.pwrStateResidencyTicks::UNDEFINED  19550604000                       # Cumulative time (in ticks) in various power states
system.cpu.dcache.pwrStateResidencyTicks::UNDEFINED  19550604000                       # Cumulative time (in ticks) in various power states
system.cpu.dcache.demand_hits::.cpu.data      1819214                       # number of demand (read+write) hits
system.cpu.dcache.demand_hits::total          1819214                       # number of demand (read+write) hits
system.cpu.dcache.overall_hits::.cpu.data      1819214                       # number of overall hits
system.cpu.dcache.overall_hits::total         1819214                       # number of overall hits
system.cpu.dcache.demand_misses::.cpu.data      3048550                       # number of demand (read+write) misses
system.cpu.dcache.demand_misses::total        3048550                       # number of demand (read+write) misses
system.cpu.dcache.overall_misses::.cpu.data      3048550                       # number of overall misses
system.cpu.dcache.overall_misses::total       3048550                       # number of overall misses
system.cpu.dcache.demand_miss_latency::.cpu.data 274213237000                       # number of demand (read+write) miss cycles
system.cpu.dcache.demand_miss_latency::total 274213237000                       # number of demand (read+write) miss cycles
system.cpu.dcache.overall_miss_latency::.cpu.data 274213237000                       # number of overall miss cycles
system.cpu.dcache.overall_miss_latency::total 274213237000                       # number of overall miss cycles
system.cpu.dcache.demand_accesses::.cpu.data      4867764                       # number of demand (read+write) accesses
system.cpu.dcache.demand_accesses::total      4867764                       # number of demand (read+write) accesses
system.cpu.dcache.overall_accesses::.cpu.data      4867764                       # number of overall (read+write) accesses
system.cpu.dcache.overall_accesses::total      4867764                       # number of overall (read+write) accesses
system.cpu.dcache.demand_miss_rate::.cpu.data     0.626273                       # miss rate for demand accesses
system.cpu.dcache.demand_miss_rate::total     0.626273                       # miss rate for demand accesses
system.cpu.dcache.overall_miss_rate::.cpu.data     0.626273                       # miss rate for overall accesses
system.cpu.dcache.overall_miss_rate::total     0.626273                       # miss rate for overall accesses
system.cpu.dcache.demand_avg_miss_latency::.cpu.data 89948.741861                       # average overall miss latency
system.cpu.dcache.demand_avg_miss_latency::total 89948.741861                       # average overall miss latency
system.cpu.dcache.overall_avg_miss_latency::.cpu.data 89948.741861                       # average overall miss latency
system.cpu.dcache.overall_avg_miss_latency::total 89948.741861                       # average overall miss latency
system.cpu.dcache.blocked_cycles::no_mshrs      5441705                       # number of cycles access was blocked
system.cpu.dcache.blocked_cycles::no_targets            0                       # number of cycles access was blocked
system.cpu.dcache.blocked::no_mshrs            734497                       # number of cycles access was blocked
system.cpu.dcache.blocked::no_targets               0                       # number of cycles access was blocked
system.cpu.dcache.avg_blocked_cycles::no_mshrs     7.408750                       # average number of cycles each access was blocked
system.cpu.dcache.avg_blocked_cycles::no_targets          nan                       # average number of cycles each access was blocked
system.cpu.dcache.writebacks::.writebacks         1710                       # number of writebacks
system.cpu.dcache.writebacks::total              1710                       # number of writebacks
system.cpu.dcache.demand_mshr_hits::.cpu.data      1912346                       # number of demand (read+write) MSHR hits
system.cpu.dcache.demand_mshr_hits::total      1912346                       # number of demand (read+write) MSHR hits
system.cpu.dcache.overall_mshr_hits::.cpu.data      1912346                       # number of overall MSHR hits
system.cpu.dcache.overall_mshr_hits::total      1912346                       # number of overall MSHR hits
system.cpu.dcache.demand_mshr_misses::.cpu.data      1136204                       # number of demand (read+write) MSHR misses
system.cpu.dcache.demand_mshr_misses::total      1136204                       # number of demand (read+write) MSHR misses
system.cpu.dcache.overall_mshr_misses::.cpu.data      1136204                       # number of overall MSHR misses
system.cpu.dcache.overall_mshr_misses::total      1136204                       # number of overall MSHR misses
system.cpu.dcache.demand_mshr_miss_latency::.cpu.data  51332421000                       # number of demand (read+write) MSHR miss cycles
system.cpu.dcache.demand_mshr_miss_latency::total  51332421000                       # number of demand (read+write) MSHR miss cycles
system.cpu.dcache.overall_mshr_miss_latency::.cpu.data  51332421000                       # number of overall MSHR miss cycles
system.cpu.dcache.overall_mshr_miss_latency::total  51332421000                       # number of overall MSHR miss cycles
system.cpu.dcache.demand_mshr_miss_rate::.cpu.data     0.233414                       # mshr miss rate for demand accesses
system.cpu.dcache.demand_mshr_miss_rate::total     0.233414                       # mshr miss rate for demand accesses
system.cpu.dcache.overall_mshr_miss_rate::.cpu.data     0.233414                       # mshr miss rate for overall accesses
system.cpu.dcache.overall_mshr_miss_rate::total     0.233414                       # mshr miss rate for overall accesses
system.cpu.dcache.demand_avg_mshr_miss_latency::.cpu.data 45178.877209                       # average overall mshr miss latency
system.cpu.dcache.demand_avg_mshr_miss_latency::total 45178.877209                       # average overall mshr miss latency
system.cpu.dcache.overall_avg_mshr_miss_latency::.cpu.data 45178.877209                       # average overall mshr miss latency
system.cpu.dcache.overall_avg_mshr_miss_latency::total 45178.877209                       # average overall mshr miss latency
system.cpu.dcache.replacements                1134156                       # number of replacements
system.cpu.dcache.ReadReq_hits::.cpu.data      1793715                       # number of ReadReq hits
system.cpu.dcache.ReadReq_hits::total         1793715                       # number of ReadReq hits
system.cpu.dcache.ReadReq_misses::.cpu.data      3048458                       # number of ReadReq misses
system.cpu.dcache.ReadReq_misses::total       3048458                       # number of ReadReq misses
system.cpu.dcache.ReadReq_miss_latency::.cpu.data 274202558000                       # number of ReadReq miss cycles
system.cpu.dcache.ReadReq_miss_latency::total 274202558000                       # number of ReadReq miss cycles
system.cpu.dcache.ReadReq_accesses::.cpu.data      4842173                       # number of ReadReq accesses(hits+misses)
system.cpu.dcache.ReadReq_accesses::total      4842173                       # number of ReadReq accesses(hits+misses)
system.cpu.dcache.ReadReq_miss_rate::.cpu.data     0.629564                       # miss rate for ReadReq accesses
system.cpu.dcache.ReadReq_miss_rate::total     0.629564                       # miss rate for ReadReq accesses
system.cpu.dcache.ReadReq_avg_miss_latency::.cpu.data 89947.953359                       # average ReadReq miss latency
system.cpu.dcache.ReadReq_avg_miss_latency::total 89947.953359                       # average ReadReq miss latency
system.cpu.dcache.ReadReq_mshr_hits::.cpu.data      1912345                       # number of ReadReq MSHR hits
system.cpu.dcache.ReadReq_mshr_hits::total      1912345                       # number of ReadReq MSHR hits
system.cpu.dcache.ReadReq_mshr_misses::.cpu.data      1136113                       # number of ReadReq MSHR misses
system.cpu.dcache.ReadReq_mshr_misses::total      1136113                       # number of ReadReq MSHR misses
system.cpu.dcache.ReadReq_mshr_miss_latency::.cpu.data  51322004000                       # number of ReadReq MSHR miss cycles
system.cpu.dcache.ReadReq_mshr_miss_latency::total  51322004000                       # number of ReadReq MSHR miss cycles
system.cpu.dcache.ReadReq_mshr_miss_rate::.cpu.data     0.234629                       # mshr miss rate for ReadReq accesses
system.cpu.dcache.ReadReq_mshr_miss_rate::total     0.234629                       # mshr miss rate for ReadReq accesses
system.cpu.dcache.ReadReq_avg_mshr_miss_latency::.cpu.data 45173.326949                       # average ReadReq mshr miss latency
system.cpu.dcache.ReadReq_avg_mshr_miss_latency::total 45173.326949                       # average ReadReq mshr miss latency
system.cpu.dcache.WriteReq_hits::.cpu.data        25499                       # number of WriteReq hits
system.cpu.dcache.WriteReq_hits::total          25499                       # number of WriteReq hits
system.cpu.dcache.WriteReq_misses::.cpu.data           92                       # number of WriteReq misses
system.cpu.dcache.WriteReq_misses::total           92                       # number of WriteReq misses
system.cpu.dcache.WriteReq_miss_latency::.cpu.data     10679000                       # number of WriteReq miss cycles
system.cpu.dcache.WriteReq_miss_latency::total     10679000                       # number of WriteReq miss cycles
system.cpu.dcache.WriteReq_accesses::.cpu.data        25591                       # number of WriteReq accesses(hits+misses)
system.cpu.dcache.WriteReq_accesses::total        25591                       # number of WriteReq accesses(hits+misses)
system.cpu.dcache.WriteReq_miss_rate::.cpu.data     0.003595                       # miss rate for WriteReq accesses
system.cpu.dcache.WriteReq_miss_rate::total     0.003595                       # miss rate for WriteReq accesses
system.cpu.dcache.WriteReq_avg_miss_latency::.cpu.data 116076.086957                       # average WriteReq miss latency
system.cpu.dcache.WriteReq_avg_miss_latency::total 116076.086957                       # average WriteReq miss latency
system.cpu.dcache.WriteReq_mshr_hits::.cpu.data            1                       # number of WriteReq MSHR hits
system.cpu.dcache.WriteReq_mshr_hits::total            1                       # number of WriteReq MSHR hits
system.cpu.dcache.WriteReq_mshr_misses::.cpu.data           91                       # number of WriteReq MSHR misses
system.cpu.dcache.WriteReq_mshr_misses::total           91                       # number of WriteReq MSHR misses
system.cpu.dcache.WriteReq_mshr_miss_latency::.cpu.data     10417000                       # number of WriteReq MSHR miss cycles
system.cpu.dcache.WriteReq_mshr_miss_latency::total     10417000                       # number of WriteReq MSHR miss cycles
system.cpu.dcache.WriteReq_mshr_miss_rate::.cpu.data     0.003556                       # mshr miss rate for WriteReq accesses
system.cpu.dcache.WriteReq_mshr_miss_rate::total     0.003556                       # mshr miss rate for WriteReq accesses
system.cpu.dcache.WriteReq_avg_mshr_miss_latency::.cpu.data 114472.527473                       # average WriteReq mshr miss latency
system.cpu.dcache.WriteReq_avg_mshr_miss_latency::total 114472.527473                       # average WriteReq mshr miss latency
system.cpu.dcache.tags.pwrStateResidencyTicks::UNDEFINED  19550604000                       # Cumulative time (in ticks) in various power states
system.cpu.dcache.tags.tagsinuse          2040.536292                       # Cycle average of tags in use
system.cpu.dcache.tags.total_refs             2955418                       # Total number of references to valid blocks.
system.cpu.dcache.tags.sampled_refs           1136204                       # Sample count of references to valid blocks.
system.cpu.dcache.tags.avg_refs              2.601133                       # Average number of references to valid blocks.
system.cpu.dcache.tags.warmup_cycle            232000                       # Cycle when the warmup percentage was hit.
system.cpu.dcache.tags.occ_blocks::.cpu.data  2040.536292                       # Average occupied blocks per requestor
system.cpu.dcache.tags.occ_percent::.cpu.data     0.996356                       # Average percentage of cache occupancy
system.cpu.dcache.tags.occ_percent::total     0.996356                       # Average percentage of cache occupancy
system.cpu.dcache.tags.occ_task_id_blocks::1024         2048                       # Occupied blocks per task id
system.cpu.dcache.tags.age_task_id_blocks_1024::0          436                       # Occupied blocks per task id
system.cpu.dcache.tags.age_task_id_blocks_1024::1         1574                       # Occupied blocks per task id
system.cpu.dcache.tags.age_task_id_blocks_1024::2           38                       # Occupied blocks per task id
system.cpu.dcache.tags.occ_task_id_percent::1024            1                       # Percentage of cache occupancy per task id
system.cpu.dcache.tags.tag_accesses          10871732                       # Number of tag accesses
system.cpu.dcache.tags.data_accesses         10871732                       # Number of data accesses
system.l2cache.pwrStateResidencyTicks::UNDEFINED  19550604000                       # Cumulative time (in ticks) in various power states
system.l2cache.demand_hits::.cpu.inst               1                       # number of demand (read+write) hits
system.l2cache.demand_hits::.cpu.data          935341                       # number of demand (read+write) hits
system.l2cache.demand_hits::total              935342                       # number of demand (read+write) hits
system.l2cache.overall_hits::.cpu.inst              1                       # number of overall hits
system.l2cache.overall_hits::.cpu.data         935341                       # number of overall hits
system.l2cache.overall_hits::total             935342                       # number of overall hits
system.l2cache.demand_misses::.cpu.inst           315                       # number of demand (read+write) misses
system.l2cache.demand_misses::.cpu.data        200863                       # number of demand (read+write) misses
system.l2cache.demand_misses::total            201178                       # number of demand (read+write) misses
system.l2cache.overall_misses::.cpu.inst          315                       # number of overall misses
system.l2cache.overall_misses::.cpu.data       200863                       # number of overall misses
system.l2cache.overall_misses::total           201178                       # number of overall misses
system.l2cache.demand_miss_latency::.cpu.inst     33746000                       # number of demand (read+write) miss cycles
system.l2cache.demand_miss_latency::.cpu.data  27487356000                       # number of demand (read+write) miss cycles
system.l2cache.demand_miss_latency::total  27521102000                       # number of demand (read+write) miss cycles
system.l2cache.overall_miss_latency::.cpu.inst     33746000                       # number of overall miss cycles
system.l2cache.overall_miss_latency::.cpu.data  27487356000                       # number of overall miss cycles
[...]
system.mem_ctrl.rdQLenPdf::23                       0                       # What read queue length does an incoming req see
system.mem_ctrl.rdQLenPdf::24                       0                       # What read queue length does an incoming req see
system.mem_ctrl.rdQLenPdf::25                       0                       # What read queue length does an incoming req see
system.mem_ctrl.rdQLenPdf::26                       0                       # What read queue length does an incoming req see
system.mem_ctrl.rdQLenPdf::27                       0                       # What read queue length does an incoming req see
system.mem_ctrl.rdQLenPdf::28                       0                       # What read queue length does an incoming req see
system.mem_ctrl.rdQLenPdf::29                       0                       # What read queue length does an incoming req see
system.mem_ctrl.rdQLenPdf::30                       0                       # What read queue length does an incoming req see
system.mem_ctrl.rdQLenPdf::31                       0                       # What read queue length does an incoming req see
system.mem_ctrl.wrQLenPdf::0                        1                       # What write queue length does an incoming req see
system.mem_ctrl.wrQLenPdf::1                        1                       # What write queue length does an incoming req see
system.mem_ctrl.wrQLenPdf::2                        1                       # What write queue length does an incoming req see
system.mem_ctrl.wrQLenPdf::3                        1                       # What write queue length does an incoming req see
system.mem_ctrl.wrQLenPdf::4                        1                       # What write queue length does an incoming req see
system.mem_ctrl.wrQLenPdf::5                        1                       # What write queue length does an incoming req see
system.mem_ctrl.wrQLenPdf::6                        1                       # What write queue length does an incoming req see
system.mem_ctrl.wrQLenPdf::7                        1                       # What write queue length does an incoming req see
system.mem_ctrl.wrQLenPdf::8                        1                       # What write queue length does an incoming req see
system.mem_ctrl.wrQLenPdf::9                        1                       # What write queue length does an incoming req see
system.mem_ctrl.wrQLenPdf::10                       1                       # What write queue length does an incoming req see
system.mem_ctrl.wrQLenPdf::11                       1                       # What write queue length does an incoming req see
system.mem_ctrl.wrQLenPdf::12                       1                       # What write queue length does an incoming req see
system.mem_ctrl.wrQLenPdf::13                       1                       # What write queue length does an incoming req see
system.mem_ctrl.wrQLenPdf::14                       1                       # What write queue length does an incoming req see
system.mem_ctrl.wrQLenPdf::15                     130                       # What write queue length does an incoming req see
system.mem_ctrl.wrQLenPdf::16                     155                       # What write queue length does an incoming req see
system.mem_ctrl.wrQLenPdf::17                     170                       # What write queue length does an incoming req see
system.mem_ctrl.wrQLenPdf::18                     174                       # What write queue length does an incoming req see
system.mem_ctrl.wrQLenPdf::19                     175                       # What write queue length does an incoming req see
system.mem_ctrl.wrQLenPdf::20                     175                       # What write queue length does an incoming req see
system.mem_ctrl.wrQLenPdf::21                     174                       # What write queue length does an incoming req see
system.mem_ctrl.wrQLenPdf::22                     174                       # What write queue length does an incoming req see
system.mem_ctrl.wrQLenPdf::23                     174                       # What write queue length does an incoming req see
system.mem_ctrl.wrQLenPdf::24                     174                       # What write queue length does an incoming req see
system.mem_ctrl.wrQLenPdf::25                     174                       # What write queue length does an incoming req see
system.mem_ctrl.wrQLenPdf::26                     174                       # What write queue length does an incoming req see
system.mem_ctrl.wrQLenPdf::27                     174                       # What write queue length does an incoming req see
system.mem_ctrl.wrQLenPdf::28                     173                       # What write queue length does an incoming req see
system.mem_ctrl.wrQLenPdf::29                     173                       # What write queue length does an incoming req see
system.mem_ctrl.wrQLenPdf::30                     173                       # What write queue length does an incoming req see
system.mem_ctrl.wrQLenPdf::31                     173                       # What write queue length does an incoming req see
system.mem_ctrl.wrQLenPdf::32                     173                       # What write queue length does an incoming req see
system.mem_ctrl.wrQLenPdf::33                      29                       # What write queue length does an incoming req see
system.mem_ctrl.wrQLenPdf::34                       0                       # What write queue length does an incoming req see
system.mem_ctrl.wrQLenPdf::35                       0                       # What write queue length does an incoming req see
system.mem_ctrl.wrQLenPdf::36                       0                       # What write queue length does an incoming req see
system.mem_ctrl.wrQLenPdf::37                       0                       # What write queue length does an incoming req see
system.mem_ctrl.wrQLenPdf::38                       0                       # What write queue length does an incoming req see
system.mem_ctrl.wrQLenPdf::39                       0                       # What write queue length does an incoming req see
system.mem_ctrl.wrQLenPdf::40                       0                       # What write queue length does an incoming req see
system.mem_ctrl.wrQLenPdf::41                       0                       # What write queue length does an incoming req see
system.mem_ctrl.wrQLenPdf::42                       0                       # What write queue length does an incoming req see
system.mem_ctrl.wrQLenPdf::43                       0                       # What write queue length does an incoming req see
system.mem_ctrl.wrQLenPdf::44                       0                       # What write queue length does an incoming req see
system.mem_ctrl.wrQLenPdf::45                       0                       # What write queue length does an incoming req see
system.mem_ctrl.wrQLenPdf::46                       0                       # What write queue length does an incoming req see
system.mem_ctrl.wrQLenPdf::47                       0                       # What write queue length does an incoming req see
system.mem_ctrl.wrQLenPdf::48                       0                       # What write queue length does an incoming req see
system.mem_ctrl.wrQLenPdf::49                       0                       # What write queue length does an incoming req see
system.mem_ctrl.wrQLenPdf::50                       0                       # What write queue length does an incoming req see
system.mem_ctrl.wrQLenPdf::51                       0                       # What write queue length does an incoming req see
system.mem_ctrl.wrQLenPdf::52                       0                       # What write queue length does an incoming req see
system.mem_ctrl.wrQLenPdf::53                       0                       # What write queue length does an incoming req see
system.mem_ctrl.wrQLenPdf::54                       0                       # What write queue length does an incoming req see
system.mem_ctrl.wrQLenPdf::55                       0                       # What write queue length does an incoming req see
system.mem_ctrl.wrQLenPdf::56                       0                       # What write queue length does an incoming req see
system.mem_ctrl.wrQLenPdf::57                       0                       # What write queue length does an incoming req see
system.mem_ctrl.wrQLenPdf::58                       0                       # What write queue length does an incoming req see
system.mem_ctrl.wrQLenPdf::59                       0                       # What write queue length does an incoming req see
system.mem_ctrl.wrQLenPdf::60                       0                       # What write queue length does an incoming req see
system.mem_ctrl.wrQLenPdf::61                       0                       # What write queue length does an incoming req see
system.mem_ctrl.wrQLenPdf::62                       0                       # What write queue length does an incoming req see
system.mem_ctrl.wrQLenPdf::63                       0                       # What write queue length does an incoming req see
system.mem_ctrl.bytesPerActivate::samples       141310                       # Bytes accessed per row activation
system.mem_ctrl.bytesPerActivate::mean      91.802930                       # Bytes accessed per row activation
system.mem_ctrl.bytesPerActivate::gmean     75.824532                       # Bytes accessed per row activation
system.mem_ctrl.bytesPerActivate::stdev     84.159694                       # Bytes accessed per row activation
system.mem_ctrl.bytesPerActivate::0-63           1728      1.22%      1.22% # Bytes accessed per row activation
system.mem_ctrl.bytesPerActivate::64-127       121450     85.95%     87.17% # Bytes accessed per row activation
system.mem_ctrl.bytesPerActivate::128-191         5241      3.71%     90.88% # Bytes accessed per row activation
system.mem_ctrl.bytesPerActivate::192-255         1228      0.87%     91.75% # Bytes accessed per row activation
system.mem_ctrl.bytesPerActivate::256-319         1177      0.83%     92.58% # Bytes accessed per row activation
system.mem_ctrl.bytesPerActivate::320-383         1752      1.24%     93.82% # Bytes accessed per row activation
system.mem_ctrl.bytesPerActivate::384-447         8597      6.08%     99.90% # Bytes accessed per row activation
system.mem_ctrl.bytesPerActivate::448-511           49      0.03%     99.94% # Bytes accessed per row activation
system.mem_ctrl.bytesPerActivate::512-575           88      0.06%    100.00% # Bytes accessed per row activation
system.mem_ctrl.bytesPerActivate::total        141310                       # Bytes accessed per row activation
system.mem_ctrl.rdPerTurnAround::samples          173                       # Reads before turning the bus around for writes
system.mem_ctrl.rdPerTurnAround::mean     2293.595376                       # Reads before turning the bus around for writes
system.mem_ctrl.rdPerTurnAround::gmean     543.607168                       # Reads before turning the bus around for writes
system.mem_ctrl.rdPerTurnAround::stdev    3336.844317                       # Reads before turning the bus around for writes
system.mem_ctrl.rdPerTurnAround::0-1023            84     48.55%     48.55% # Reads before turning the bus around for writes
system.mem_ctrl.rdPerTurnAround::1024-2047           21     12.14%     60.69% # Reads before turning the bus around for writes
system.mem_ctrl.rdPerTurnAround::2048-3071           22     12.72%     73.41% # Reads before turning the bus around for writes
system.mem_ctrl.rdPerTurnAround::3072-4095            1      0.58%     73.99% # Reads before turning the bus around for writes
system.mem_ctrl.rdPerTurnAround::4096-5119            2      1.16%     75.14% # Reads before turning the bus around for writes
system.mem_ctrl.rdPerTurnAround::5120-6143           17      9.83%     84.97% # Reads before turning the bus around for writes
system.mem_ctrl.rdPerTurnAround::6144-7167           24     13.87%     98.84% # Reads before turning the bus around for writes
system.mem_ctrl.rdPerTurnAround::7168-8191            1      0.58%     99.42% # Reads before turning the bus around for writes
system.mem_ctrl.rdPerTurnAround::31744-32767            1      0.58%    100.00% # Reads before turning the bus around for writes
system.mem_ctrl.rdPerTurnAround::total            173                       # Reads before turning the bus around for writes
system.mem_ctrl.wrPerTurnAround::samples          173                       # Writes before turning the bus around for reads
system.mem_ctrl.wrPerTurnAround::mean       17.791908                       # Writes before turning the bus around for reads
system.mem_ctrl.wrPerTurnAround::gmean      17.774515                       # Writes before turning the bus around for reads
system.mem_ctrl.wrPerTurnAround::stdev       0.779492                       # Writes before turning the bus around for reads
system.mem_ctrl.wrPerTurnAround::16                16      9.25%      9.25% # Writes before turning the bus around for reads
system.mem_ctrl.wrPerTurnAround::17                25     14.45%     23.70% # Writes before turning the bus around for reads
system.mem_ctrl.wrPerTurnAround::18               112     64.74%     88.44% # Writes before turning the bus around for reads
system.mem_ctrl.wrPerTurnAround::19                19     10.98%     99.42% # Writes before turning the bus around for reads
system.mem_ctrl.wrPerTurnAround::20                 1      0.58%    100.00% # Writes before turning the bus around for reads
system.mem_ctrl.wrPerTurnAround::total            173                       # Writes before turning the bus around for reads
system.mem_ctrl.bytesReadDRAM                12875328                       # Total number of bytes read from DRAM
system.mem_ctrl.bytesReadWrQ                        0                       # Total number of bytes read from write queue
system.mem_ctrl.bytesWritten                    98496                       # Total number of bytes written to DRAM
system.mem_ctrl.bytesReadSys                 12875328                       # Total read bytes from the system interface side
system.mem_ctrl.bytesWrittenSys                 99392                       # Total written bytes from the system interface side
system.mem_ctrl.avgRdBW                        658.56                       # Average DRAM read bandwidth in MiByte/s
system.mem_ctrl.avgWrBW                          5.04                       # Average achieved write bandwidth in MiByte/s
system.mem_ctrl.avgRdBWSys                     658.56                       # Average system read bandwidth in MiByte/s
system.mem_ctrl.avgWrBWSys                       5.08                       # Average system write bandwidth in MiByte/s
system.mem_ctrl.peakBW                        8000.00                       # Theoretical peak bandwidth in MiByte/s
system.mem_ctrl.busUtil                          8.30                       # Data bus utilization in percentage
system.mem_ctrl.busUtilRead                      8.23                       # Data bus utilization in percentage for reads
system.mem_ctrl.busUtilWrite                     0.06                       # Data bus utilization in percentage for writes
system.mem_ctrl.totGap                    19550459000                       # Total gap between requests
system.mem_ctrl.avgGap                       96435.94                       # Average gap between requests
system.mem_ctrl.masterReadBytes::.cpu.inst        20096                       # Per-master bytes read from memory
system.mem_ctrl.masterReadBytes::.cpu.data     12855232                       # Per-master bytes read from memory
system.mem_ctrl.masterWriteBytes::.writebacks        98496                       # Per-master bytes write to memory
system.mem_ctrl.masterReadRate::.cpu.inst 1027896.631735776551                       # Per-master bytes read from memory rate (Bytes/sec)
system.mem_ctrl.masterReadRate::.cpu.data 657536309.364150643349                       # Per-master bytes read from memory rate (Bytes/sec)
system.mem_ctrl.masterWriteRate::.writebacks 5038002.917966115288                       # Per-master bytes write to memory rate (Bytes/sec)
system.mem_ctrl.masterReadAccesses::.cpu.inst          628                       # Per-master read serviced memory accesses
system.mem_ctrl.masterReadAccesses::.cpu.data       401726                       # Per-master read serviced memory accesses
system.mem_ctrl.masterWriteAccesses::.writebacks         3106                       # Per-master write serviced memory accesses
system.mem_ctrl.masterReadTotalLat::.cpu.inst     21643000                       # Per-master read total memory access latency
system.mem_ctrl.masterReadTotalLat::.cpu.data  25367712000                       # Per-master read total memory access latency
system.mem_ctrl.masterWriteTotalLat::.writebacks 418523555000                       # Per-master write total memory access latency
system.mem_ctrl.masterReadAvgLat::.cpu.inst     34463.38                       # Per-master read average memory access latency
system.mem_ctrl.masterReadAvgLat::.cpu.data     63146.80                       # Per-master read average memory access latency
system.mem_ctrl.masterWriteAvgLat::.writebacks 134746798.13                       # Per-master write average memory access latency
system.mem_ctrl.pageHitRate                     65.14                       # Row buffer hit rate, read and write combined
system.mem_ctrl.rank0.actEnergy                     0                       # Energy for activate commands per rank (pJ)
system.mem_ctrl.rank0.preEnergy                     0                       # Energy for precharge commands per rank (pJ)
system.mem_ctrl.rank0.readEnergy                    0                       # Energy for read commands per rank (pJ)
system.mem_ctrl.rank0.writeEnergy                   0                       # Energy for write commands per rank (pJ)
system.mem_ctrl.rank0.refreshEnergy                 0                       # Energy for refresh commands per rank (pJ)
system.mem_ctrl.rank0.actBackEnergy                 0                       # Energy for active background per rank (pJ)
system.mem_ctrl.rank0.preBackEnergy                 0                       # Energy for precharge background per rank (pJ)
system.mem_ctrl.rank0.actPowerDownEnergy            0                       # Energy for active power-down per rank (pJ)
system.mem_ctrl.rank0.prePowerDownEnergy            0                       # Energy for precharge power-down per rank (pJ)
system.mem_ctrl.rank0.selfRefreshEnergy             0                       # Energy for self refresh per rank (pJ)
system.mem_ctrl.rank0.totalEnergy                   0                       # Total energy per rank (pJ)
system.mem_ctrl.rank0.averagePower                  0                       # Core power per rank (mW)
system.mem_ctrl.rank0.totalIdleTime                 0                       # Total Idle time Per DRAM Rank
system.mem_ctrl.rank0.memoryStateTime::IDLE        23000                       # Time in different power states
system.mem_ctrl.rank0.memoryStateTime::REF   1308320000                       # Time in different power states
system.mem_ctrl.rank0.memoryStateTime::SREF            0                       # Time in different power states
system.mem_ctrl.rank0.memoryStateTime::PRE_PDN            0                       # Time in different power states
system.mem_ctrl.rank0.memoryStateTime::ACT  18242261000                       # Time in different power states
system.mem_ctrl.rank0.memoryStateTime::ACT_PDN            0                       # Time in different power states

---------- End Simulation Statistics   ----------
