gem5 Simulator System.  http://gem5.org
gem5 is copyrighted software; use the --copyright option for details.

gem5 compiled Jan 29 2020 17:17:17
gem5 started Jan 30 2020 11:06:52
gem5 executing on tetracosa.cs.ucla.edu, pid 129038
command line: build/X86/gem5.opt --outdir 4_O3_HBM/lfsr simple.py --memctrl HBM_1000_4H_1x64 --benchmark lfsr

Global frequency set at 1000000000000 ticks per second
warn: DRAM device capacity (256 Mbytes) does not match the address range assigned (512 Mbytes)
0: system.remote_gdb: listening for remote gdb on port 7000
Beginning simulation with parameters Namespace(CPU='DerivO3CPU', benchmark='lfsr', frequency='1GHz', memctrl='HBM_1000_4H_1x64', nol2=False)
info: Entering event queue @ 0.  Starting simulation...
Done simulating at tick 13136365000 because exiting with last active thread context
gem5 Simulator System.  http://gem5.org
gem5 is copyrighted software; use the --copyright option for details.

gem5 compiled Jan 29 2020 17:17:17
gem5 started Jan 30 2020 11:07:35
gem5 executing on tetracosa.cs.ucla.edu, pid 129209
command line: build/X86/gem5.opt --outdir 4_O3_HBM/merge simple.py --memctrl HBM_1000_4H_1x64 --benchmark merge

Global frequency set at 1000000000000 ticks per second
warn: DRAM device capacity (256 Mbytes) does not match the address range assigned (512 Mbytes)
0: system.remote_gdb: listening for remote gdb on port 7000
Beginning simulation with parameters Namespace(CPU='DerivO3CPU', benchmark='merge', frequency='1GHz', memctrl='HBM_1000_4H_1x64', nol2=False)
info: Entering event queue @ 0.  Starting simulation...
Done simulating at tick 2507131000 because exiting with last active thread context
gem5 Simulator System.  http://gem5.org
gem5 is copyrighted software; use the --copyright option for details.

gem5 compiled Jan 29 2020 17:17:17
gem5 started Jan 30 2020 11:07:53
gem5 executing on tetracosa.cs.ucla.edu, pid 129281
command line: build/X86/gem5.opt --outdir 4_O3_HBM/mm simple.py --memctrl HBM_1000_4H_1x64 --benchmark mm

Global frequency set at 1000000000000 ticks per second
warn: DRAM device capacity (256 Mbytes) does not match the address range assigned (512 Mbytes)
0: system.remote_gdb: listening for remote gdb on port 7000
Beginning simulation with parameters Namespace(CPU='DerivO3CPU', benchmark='mm', frequency='1GHz', memctrl='HBM_1000_4H_1x64', nol2=False)
info: Entering event queue @ 0.  Starting simulation...
Done simulating at tick 6872565000 because exiting with last active thread context
gem5 Simulator System.  http://gem5.org
gem5 is copyrighted software; use the --copyright option for details.

gem5 compiled Jan 29 2020 17:17:17
gem5 started Jan 30 2020 11:08:56
gem5 executing on tetracosa.cs.ucla.edu, pid 129463
command line: build/X86/gem5.opt --outdir 4_O3_HBM/sieve simple.py --memctrl HBM_1000_4H_1x64 --benchmark sieve

Global frequency set at 1000000000000 ticks per second
warn: DRAM device capacity (256 Mbytes) does not match the address range assigned (512 Mbytes)
0: system.remote_gdb: listening for remote gdb on port 7000
Beginning simulation with parameters Namespace(CPU='DerivO3CPU', benchmark='sieve', frequency='1GHz', memctrl='HBM_1000_4H_1x64', nol2=False)
info: Entering event queue @ 0.  Starting simulation...
Done simulating at tick 24963223000 because exiting with last active thread context
gem5 Simulator System.  http://gem5.org
gem5 is copyrighted software; use the --copyright option for details.

gem5 compiled Jan 29 2020 17:17:17
gem5 started Jan 30 2020 11:10:01
gem5 executing on tetracosa.cs.ucla.edu, pid 129650
command line: build/X86/gem5.opt --outdir 4_O3_HBM/spmv simple.py --memctrl HBM_1000_4H_1x64 --benchmark spmv

Global frequency set at 1000000000000 ticks per second
warn: DRAM device capacity (256 Mbytes) does not match the address range assigned (512 Mbytes)
0: system.remote_gdb: listening for remote gdb on port 7000
Beginning simulation with parameters Namespace(CPU='DerivO3CPU', benchmark='spmv', frequency='1GHz', memctrl='HBM_1000_4H_1x64', nol2=False)
info: Entering event queue @ 0.  Starting simulation...
info: Increasing stack size by one page.
info: Increasing stack size by one page.
info: Increasing stack size by one page.
info: Increasing stack size by one page.
info: Increasing stack size by one page.
info: Increasing stack size by one page.
info: Increasing stack size by one page.
info: Increasing stack size by one page.
Done simulating at tick 19550604000 because exiting with last active thread context
