
---------- Begin Simulation Statistics ----------
final_tick                                36135911000                       # Number of ticks from beginning of simulation (restored from checkpoints and never reset)
host_inst_rate                                 150496                       # Simulator instruction rate (inst/s)
host_mem_usage                                 796716                       # Number of bytes of host memory used
host_op_rate                                   247291                       # Simulator op (including micro ops) rate (op/s)
host_seconds                                    81.85                       # Real time elapsed on the host
host_tick_rate                              441515141                       # Simulator tick rate (ticks/s)
sim_freq                                 1000000000000                       # Frequency of simulated ticks
sim_insts                                    12317377                       # Number of instructions simulated
sim_ops                                      20239615                       # Number of ops (including micro ops) simulated
sim_seconds                                  0.036136                       # Number of seconds simulated
sim_ticks                                 36135911000                       # Number of ticks simulated
system.cpu.branchPred.BTBCorrect                    0                       # Number of correct BTB predictions (this stat may not work properly.
system.cpu.branchPred.BTBHitPct              0.000000                       # BTB Hit Percentage
system.cpu.branchPred.BTBHits                       0                       # Number of BTB hits
system.cpu.branchPred.BTBLookups                    9                       # Number of BTB lookups
system.cpu.branchPred.RASInCorrect                  0                       # Number of incorrect RAS predictions.
system.cpu.branchPred.condIncorrect                 7                       # Number of conditional branches incorrect
system.cpu.branchPred.condPredicted                15                       # Number of conditional branches predicted
system.cpu.branchPred.indirectHits                  0                       # Number of indirect target hits.
system.cpu.branchPred.indirectLookups               9                       # Number of indirect predictor lookups.
system.cpu.branchPred.indirectMisses                9                       # Number of indirect misses.
system.cpu.branchPred.lookups                      15                       # Number of BP lookups
system.cpu.branchPred.usedRAS                       0                       # Number of times the RAS was used to get a target.
system.cpu.branchPredindirectMispredicted            1                       # Number of mispredicted indirect branches.
system.cpu.committedInsts                    12317377                       # Number of instructions committed
system.cpu.committedOps                      20239615                       # Number of ops (including micro ops) committed
system.cpu.cpi                               2.933734                       # CPI: cycles per instruction
system.cpu.discardedOps                       9176450                       # Number of ops (including micro ops) which were discarded before commit
system.cpu.dtb.rdAccesses                      127018                       # TLB accesses on read requests
system.cpu.dtb.rdMisses                           459                       # TLB misses on read requests
system.cpu.dtb.wrAccesses                     2198945                       # TLB accesses on write requests
system.cpu.dtb.wrMisses                         40994                       # TLB misses on write requests
system.cpu.fetch2.amo_instructions                  0                       # Number of memory atomic instructions successfully decoded
system.cpu.fetch2.fp_instructions                   0                       # Number of floating point instructions successfully decoded
system.cpu.fetch2.int_instructions                  8                       # Number of integer instructions successfully decoded
system.cpu.fetch2.load_instructions                 0                       # Number of memory load instructions successfully decoded
system.cpu.fetch2.store_instructions                0                       # Number of memory store instructions successfully decoded
system.cpu.fetch2.vec_instructions                  0                       # Number of SIMD instructions successfully decoded
system.cpu.idleCycles                          804404                       # Total number of cycles that the object has spent stopped
system.cpu.ipc                               0.340863                       # IPC: instructions per cycle
system.cpu.itb.rdAccesses                           0                       # TLB accesses on read requests
system.cpu.itb.rdMisses                             0                       # TLB misses on read requests
system.cpu.itb.wrAccesses                     6850903                       # TLB accesses on write requests
system.cpu.itb.wrMisses                            32                       # TLB misses on write requests
system.cpu.numCycles                         36135911                       # number of cpu cycles simulated
system.cpu.numFetchSuspends                         0                       # Number of times Execute suspended instruction fetching
system.cpu.numWorkItemsCompleted                    0                       # number of work items this cpu completed
system.cpu.numWorkItemsStarted                      0                       # number of work items this cpu started
system.cpu.op_class_0::No_OpClass                 214      0.00%      0.00% # Class of committed instruction
system.cpu.op_class_0::IntAlu                16412529     81.09%     81.09% # Class of committed instruction
system.cpu.op_class_0::IntMult                   1004      0.00%     81.10% # Class of committed instruction
system.cpu.op_class_0::IntDiv                      21      0.00%     81.10% # Class of committed instruction
system.cpu.op_class_0::FloatAdd                     2      0.00%     81.10% # Class of committed instruction
system.cpu.op_class_0::FloatCmp                     0      0.00%     81.10% # Class of committed instruction
system.cpu.op_class_0::FloatCvt                     0      0.00%     81.10% # Class of committed instruction
system.cpu.op_class_0::FloatMult                    0      0.00%     81.10% # Class of committed instruction
system.cpu.op_class_0::FloatMultAcc                 0      0.00%     81.10% # Class of committed instruction
system.cpu.op_class_0::FloatDiv                     0      0.00%     81.10% # Class of committed instruction
system.cpu.op_class_0::FloatMisc                    0      0.00%     81.10% # Class of committed instruction
system.cpu.op_class_0::FloatSqrt                    0      0.00%     81.10% # Class of committed instruction
system.cpu.op_class_0::SimdAdd                 499996      2.47%     83.57% # Class of committed instruction
system.cpu.op_class_0::SimdAddAcc                   0      0.00%     83.57% # Class of committed instruction
system.cpu.op_class_0::SimdAlu                 125048      0.62%     84.19% # Class of committed instruction
system.cpu.op_class_0::SimdCmp                      0      0.00%     84.19% # Class of committed instruction
system.cpu.op_class_0::SimdCvt                 125028      0.62%     84.80% # Class of committed instruction
system.cpu.op_class_0::SimdMisc                750032      3.71%     88.51% # Class of committed instruction
system.cpu.op_class_0::SimdMult                     0      0.00%     88.51% # Class of committed instruction
system.cpu.op_class_0::SimdMultAcc                  0      0.00%     88.51% # Class of committed instruction
system.cpu.op_class_0::SimdShift                    6      0.00%     88.51% # Class of committed instruction
system.cpu.op_class_0::SimdShiftAcc                 0      0.00%     88.51% # Class of committed instruction
system.cpu.op_class_0::SimdDiv                      0      0.00%     88.51% # Class of committed instruction
system.cpu.op_class_0::SimdSqrt                     0      0.00%     88.51% # Class of committed instruction
system.cpu.op_class_0::SimdFloatAdd                 0      0.00%     88.51% # Class of committed instruction
system.cpu.op_class_0::SimdFloatAlu                 0      0.00%     88.51% # Class of committed instruction
system.cpu.op_class_0::SimdFloatCmp                 0      0.00%     88.51% # Class of committed instruction
system.cpu.op_class_0::SimdFloatCvt                 0      0.00%     88.51% # Class of committed instruction
system.cpu.op_class_0::SimdFloatDiv                 0      0.00%     88.51% # Class of committed instruction
system.cpu.op_class_0::SimdFloatMisc                0      0.00%     88.51% # Class of committed instruction
system.cpu.op_class_0::SimdFloatMult                0      0.00%     88.51% # Class of committed instruction
system.cpu.op_class_0::SimdFloatMultAcc             0      0.00%     88.51% # Class of committed instruction
system.cpu.op_class_0::SimdFloatSqrt                0      0.00%     88.51% # Class of committed instruction
system.cpu.op_class_0::SimdReduceAdd                0      0.00%     88.51% # Class of committed instruction
system.cpu.op_class_0::SimdReduceAlu                0      0.00%     88.51% # Class of committed instruction
system.cpu.op_class_0::SimdReduceCmp                0      0.00%     88.51% # Class of committed instruction
system.cpu.op_class_0::SimdFloatReduceAdd            0      0.00%     88.51% # Class of committed instruction
system.cpu.op_class_0::SimdFloatReduceCmp            0      0.00%     88.51% # Class of committed instruction
system.cpu.op_class_0::SimdAes                      0      0.00%     88.51% # Class of committed instruction
system.cpu.op_class_0::SimdAesMix                   0      0.00%     88.51% # Class of committed instruction
system.cpu.op_class_0::SimdSha1Hash                 0      0.00%     88.51% # Class of committed instruction
system.cpu.op_class_0::SimdSha1Hash2                0      0.00%     88.51% # Class of committed instruction
system.cpu.op_class_0::SimdSha256Hash               0      0.00%     88.51% # Class of committed instruction
system.cpu.op_class_0::SimdSha256Hash2              0      0.00%     88.51% # Class of committed instruction
system.cpu.op_class_0::SimdShaSigma2                0      0.00%     88.51% # Class of committed instruction
system.cpu.op_class_0::SimdShaSigma3                0      0.00%     88.51% # Class of committed instruction
system.cpu.op_class_0::SimdPredAlu                  0      0.00%     88.51% # Class of committed instruction
system.cpu.op_class_0::MemRead                   1806      0.01%     88.52% # Class of committed instruction
system.cpu.op_class_0::MemWrite               2198750     10.86%     99.38% # Class of committed instruction
system.cpu.op_class_0::FloatMemRead            125026      0.62%    100.00% # Class of committed instruction
system.cpu.op_class_0::FloatMemWrite              153      0.00%    100.00% # Class of committed instruction
system.cpu.op_class_0::IprAccess                    0      0.00%    100.00% # Class of committed instruction
system.cpu.op_class_0::InstPrefetch                 0      0.00%    100.00% # Class of committed instruction
system.cpu.op_class_0::total                 20239615                       # Class of committed instruction
system.cpu.tickCycles                        35331507                       # Number of cycles that the object actually ticked
system.cpu.workload.numSyscalls                     8                       # Number of system calls
system.l2bus.snoop_filter.hit_multi_requests            1                       # Number of requests hitting in the snoop filter with multiple (>1) holders of the requested data.
system.l2bus.snoop_filter.hit_multi_snoops            0                       # Number of snoops hitting in the snoop filter with multiple (>1) holders of the requested data.
system.l2bus.snoop_filter.hit_single_requests       763210                       # Number of requests hitting in the snoop filter with a single holder of the requested data.
system.l2bus.snoop_filter.hit_single_snoops          250                       # Number of snoops hitting in the snoop filter with a single holder of the requested data.
system.l2bus.snoop_filter.tot_requests        1528853                       # Total number of requests made to the snoop filter.
system.l2bus.snoop_filter.tot_snoops              250                       # Total number of snoops made to the snoop filter.
system.membus.snoop_filter.hit_multi_requests            0                       # Number of requests hitting in the snoop filter with multiple (>1) holders of the requested data.
system.membus.snoop_filter.hit_multi_snoops            0                       # Number of snoops hitting in the snoop filter with multiple (>1) holders of the requested data.
system.membus.snoop_filter.hit_single_requests           42                       # Number of requests hitting in the snoop filter with a single holder of the requested data.
system.membus.snoop_filter.hit_single_snoops            0                       # Number of snoops hitting in the snoop filter with a single holder of the requested data.
system.membus.snoop_filter.tot_requests         16219                       # Total number of requests made to the snoop filter.
system.membus.snoop_filter.tot_snoops               0                       # Total number of snoops made to the snoop filter.
system.membus.pwrStateResidencyTicks::UNDEFINED  36135911000                       # Cumulative time (in ticks) in various power states
system.membus.trans_dist::ReadResp                458                       # Transaction distribution
system.membus.trans_dist::WritebackDirty           26                       # Transaction distribution
system.membus.trans_dist::CleanEvict               16                       # Transaction distribution
system.membus.trans_dist::ReadExReq             15719                       # Transaction distribution
system.membus.trans_dist::ReadExResp            15719                       # Transaction distribution
system.membus.trans_dist::ReadSharedReq           458                       # Transaction distribution
system.membus.pkt_count_system.l2cache.mem_side::system.mem_ctrl.port        32396                       # Packet count per connected master and slave (bytes)
system.membus.pkt_count_system.l2cache.mem_side::total        32396                       # Packet count per connected master and slave (bytes)
system.membus.pkt_count::total                  32396                       # Packet count per connected master and slave (bytes)
system.membus.pkt_size_system.l2cache.mem_side::system.mem_ctrl.port      1036992                       # Cumulative packet size per connected master and slave (bytes)
system.membus.pkt_size_system.l2cache.mem_side::total      1036992                       # Cumulative packet size per connected master and slave (bytes)
system.membus.pkt_size::total                 1036992                       # Cumulative packet size per connected master and slave (bytes)
system.membus.snoops                                0                       # Total snoops (count)
system.membus.snoopTraffic                          0                       # Total snoop traffic (bytes)
system.membus.snoop_fanout::samples             16177                       # Request fanout histogram
system.membus.snoop_fanout::mean                    0                       # Request fanout histogram
system.membus.snoop_fanout::stdev                   0                       # Request fanout histogram
system.membus.snoop_fanout::underflows              0      0.00%      0.00% # Request fanout histogram
system.membus.snoop_fanout::0                   16177    100.00%    100.00% # Request fanout histogram
system.membus.snoop_fanout::1                       0      0.00%    100.00% # Request fanout histogram
system.membus.snoop_fanout::overflows               0      0.00%    100.00% # Request fanout histogram
system.membus.snoop_fanout::min_value               0                       # Request fanout histogram
system.membus.snoop_fanout::max_value               0                       # Request fanout histogram
system.membus.snoop_fanout::total               16177                       # Request fanout histogram
system.membus.reqLayer2.occupancy            16323000                       # Layer occupancy (ticks)
system.membus.reqLayer2.utilization               0.0                       # Layer utilization (%)
system.membus.respLayer0.occupancy           80886500                       # Layer occupancy (ticks)
system.membus.respLayer0.utilization              0.2                       # Layer utilization (%)
system.l2bus.pwrStateResidencyTicks::UNDEFINED  36135911000                       # Cumulative time (in ticks) in various power states
system.l2bus.trans_dist::ReadResp               16029                       # Transaction distribution
system.l2bus.trans_dist::WritebackDirty        763201                       # Transaction distribution
system.l2bus.trans_dist::CleanEvict               301                       # Transaction distribution
system.l2bus.trans_dist::ReadExReq             749614                       # Transaction distribution
system.l2bus.trans_dist::ReadExResp            749614                       # Transaction distribution
system.l2bus.trans_dist::ReadSharedReq          16029                       # Transaction distribution
system.l2bus.pkt_count_system.cpu.icache.mem_side::system.l2cache.cpu_side          770                       # Packet count per connected master and slave (bytes)
system.l2bus.pkt_count_system.cpu.dcache.mem_side::system.l2cache.cpu_side      2293726                       # Packet count per connected master and slave (bytes)
system.l2bus.pkt_count::total                 2294496                       # Packet count per connected master and slave (bytes)
system.l2bus.pkt_size_system.cpu.icache.mem_side::system.l2cache.cpu_side        24640                       # Cumulative packet size per connected master and slave (bytes)
system.l2bus.pkt_size_system.cpu.dcache.mem_side::system.l2cache.cpu_side     97819712                       # Cumulative packet size per connected master and slave (bytes)
system.l2bus.pkt_size::total                 97844352                       # Cumulative packet size per connected master and slave (bytes)
system.l2bus.snoops                               292                       # Total snoops (count)
system.l2bus.snoopTraffic                        1664                       # Total snoop traffic (bytes)
system.l2bus.snoop_fanout::samples             765935                       # Request fanout histogram
system.l2bus.snoop_fanout::mean              0.000328                       # Request fanout histogram
system.l2bus.snoop_fanout::stdev             0.018100                       # Request fanout histogram
system.l2bus.snoop_fanout::underflows               0      0.00%      0.00% # Request fanout histogram
system.l2bus.snoop_fanout::0                   765684     99.97%     99.97% # Request fanout histogram
system.l2bus.snoop_fanout::1                      251      0.03%    100.00% # Request fanout histogram
system.l2bus.snoop_fanout::2                        0      0.00%    100.00% # Request fanout histogram
system.l2bus.snoop_fanout::overflows                0      0.00%    100.00% # Request fanout histogram
system.l2bus.snoop_fanout::min_value                0                       # Request fanout histogram
system.l2bus.snoop_fanout::max_value                1                       # Request fanout histogram
system.l2bus.snoop_fanout::total               765935                       # Request fanout histogram
system.l2bus.respLayer1.occupancy          2295774000                       # Layer occupancy (ticks)
system.l2bus.respLayer1.utilization               6.4                       # Layer utilization (%)
system.l2bus.reqLayer0.occupancy           3055203000                       # Layer occupancy (ticks)
system.l2bus.reqLayer0.utilization                8.5                       # Layer utilization (%)
system.l2bus.respLayer0.occupancy             1155000                       # Layer occupancy (ticks)
system.l2bus.respLayer0.utilization               0.0                       # Layer utilization (%)
system.clk_domain.clock                          1000                       # Clock period in ticks
system.clk_domain.voltage_domain.voltage            1                       # Voltage in Volts
system.cpu.pwrStateResidencyTicks::ON     36135911000                       # Cumulative time (in ticks) in various power states
system.cpu.icache.pwrStateResidencyTicks::UNDEFINED  36135911000                       # Cumulative time (in ticks) in various power states
system.cpu.icache.demand_hits::.cpu.inst      6850517                       # number of demand (read+write) hits
system.cpu.icache.demand_hits::total          6850517                       # number of demand (read+write) hits
system.cpu.icache.overall_hits::.cpu.inst      6850517                       # number of overall hits
system.cpu.icache.overall_hits::total         6850517                       # number of overall hits
system.cpu.icache.demand_misses::.cpu.inst          386                       # number of demand (read+write) misses
system.cpu.icache.demand_misses::total            386                       # number of demand (read+write) misses
system.cpu.icache.overall_misses::.cpu.inst          386                       # number of overall misses
system.cpu.icache.overall_misses::total           386                       # number of overall misses
system.cpu.icache.demand_miss_latency::.cpu.inst     42513000                       # number of demand (read+write) miss cycles
system.cpu.icache.demand_miss_latency::total     42513000                       # number of demand (read+write) miss cycles
system.cpu.icache.overall_miss_latency::.cpu.inst     42513000                       # number of overall miss cycles
system.cpu.icache.overall_miss_latency::total     42513000                       # number of overall miss cycles
system.cpu.icache.demand_accesses::.cpu.inst      6850903                       # number of demand (read+write) accesses
system.cpu.icache.demand_accesses::total      6850903                       # number of demand (read+write) accesses
system.cpu.icache.overall_accesses::.cpu.inst      6850903                       # number of overall (read+write) accesses
system.cpu.icache.overall_accesses::total      6850903                       # number of overall (read+write) accesses
system.cpu.icache.demand_miss_rate::.cpu.inst     0.000056                       # miss rate for demand accesses
system.cpu.icache.demand_miss_rate::total     0.000056                       # miss rate for demand accesses
system.cpu.icache.overall_miss_rate::.cpu.inst     0.000056                       # miss rate for overall accesses
system.cpu.icache.overall_miss_rate::total     0.000056                       # miss rate for overall accesses
system.cpu.icache.demand_avg_miss_latency::.cpu.inst 110137.305699                       # average overall miss latency
system.cpu.icache.demand_avg_miss_latency::total 110137.305699                       # average overall miss latency
system.cpu.icache.overall_avg_miss_latency::.cpu.inst 110137.305699                       # average overall miss latency
system.cpu.icache.overall_avg_miss_latency::total 110137.305699                       # average overall miss latency
system.cpu.icache.blocked_cycles::no_mshrs            0                       # number of cycles access was blocked
system.cpu.icache.blocked_cycles::no_targets            0                       # number of cycles access was blocked
system.cpu.icache.blocked::no_mshrs                 0                       # number of cycles access was blocked
system.cpu.icache.blocked::no_targets               0                       # number of cycles access was blocked
system.cpu.icache.avg_blocked_cycles::no_mshrs          nan                       # average number of cycles each access was blocked
system.cpu.icache.avg_blocked_cycles::no_targets          nan                       # average number of cycles each access was blocked
system.cpu.icache.demand_mshr_misses::.cpu.inst          386                       # number of demand (read+write) MSHR misses
system.cpu.icache.demand_mshr_misses::total          386                       # number of demand (read+write) MSHR misses
system.cpu.icache.overall_mshr_misses::.cpu.inst          386                       # number of overall MSHR misses
system.cpu.icache.overall_mshr_misses::total          386                       # number of overall MSHR misses
system.cpu.icache.demand_mshr_miss_latency::.cpu.inst     41743000                       # number of demand (read+write) MSHR miss cycles
system.cpu.icache.demand_mshr_miss_latency::total     41743000                       # number of demand (read+write) MSHR miss cycles
system.cpu.icache.overall_mshr_miss_latency::.cpu.inst     41743000                       # number of overall MSHR miss cycles
system.cpu.icache.overall_mshr_miss_latency::total     41743000                       # number of overall MSHR miss cycles
system.cpu.icache.demand_mshr_miss_rate::.cpu.inst     0.000056                       # mshr miss rate for demand accesses
system.cpu.icache.demand_mshr_miss_rate::total     0.000056                       # mshr miss rate for demand accesses
system.cpu.icache.overall_mshr_miss_rate::.cpu.inst     0.000056                       # mshr miss rate for overall accesses
system.cpu.icache.overall_mshr_miss_rate::total     0.000056                       # mshr miss rate for overall accesses
system.cpu.icache.demand_avg_mshr_miss_latency::.cpu.inst 108142.487047                       # average overall mshr miss latency
system.cpu.icache.demand_avg_mshr_miss_latency::total 108142.487047                       # average overall mshr miss latency
system.cpu.icache.overall_avg_mshr_miss_latency::.cpu.inst 108142.487047                       # average overall mshr miss latency
system.cpu.icache.overall_avg_mshr_miss_latency::total 108142.487047                       # average overall mshr miss latency
system.cpu.icache.replacements                      0                       # number of replacements
system.cpu.icache.ReadReq_hits::.cpu.inst      6850517                       # number of ReadReq hits
system.cpu.icache.ReadReq_hits::total         6850517                       # number of ReadReq hits
system.cpu.icache.ReadReq_misses::.cpu.inst          386                       # number of ReadReq misses
system.cpu.icache.ReadReq_misses::total           386                       # number of ReadReq misses
system.cpu.icache.ReadReq_miss_latency::.cpu.inst     42513000                       # number of ReadReq miss cycles
system.cpu.icache.ReadReq_miss_latency::total     42513000                       # number of ReadReq miss cycles
system.cpu.icache.ReadReq_accesses::.cpu.inst      6850903                       # number of ReadReq accesses(hits+misses)
system.cpu.icache.ReadReq_accesses::total      6850903                       # number of ReadReq accesses(hits+misses)
system.cpu.icache.ReadReq_miss_rate::.cpu.inst     0.000056                       # miss rate for ReadReq accesses
system.cpu.icache.ReadReq_miss_rate::total     0.000056                       # miss rate for ReadReq accesses
system.cpu.icache.ReadReq_avg_miss_latency::.cpu.inst 110137.305699                       # average ReadReq miss latency
system.cpu.icache.ReadReq_avg_miss_latency::total 110137.305699                       # average ReadReq miss latency
system.cpu.icache.ReadReq_mshr_misses::.cpu.inst          386                       # number of ReadReq MSHR misses
system.cpu.icache.ReadReq_mshr_misses::total          386                       # number of ReadReq MSHR misses
system.cpu.icache.ReadReq_mshr_miss_latency::.cpu.inst     41743000                       # number of ReadReq MSHR miss cycles
system.cpu.icache.ReadReq_mshr_miss_latency::total     41743000                       # number of ReadReq MSHR miss cycles
system.cpu.icache.ReadReq_mshr_miss_rate::.cpu.inst     0.000056                       # mshr miss rate for ReadReq accesses
system.cpu.icache.ReadReq_mshr_miss_rate::total     0.000056                       # mshr miss rate for ReadReq accesses
system.cpu.icache.ReadReq_avg_mshr_miss_latency::.cpu.inst 108142.487047                       # average ReadReq mshr miss latency
system.cpu.icache.ReadReq_avg_mshr_miss_latency::total 108142.487047                       # average ReadReq mshr miss latency
system.cpu.icache.tags.pwrStateResidencyTicks::UNDEFINED  36135911000                       # Cumulative time (in ticks) in various power states
system.cpu.icache.tags.tagsinuse           354.030919                       # Cycle average of tags in use
system.cpu.icache.tags.total_refs             6850902                       # Total number of references to valid blocks.
system.cpu.icache.tags.sampled_refs               385                       # Sample count of references to valid blocks.
system.cpu.icache.tags.avg_refs          17794.550649                       # Average number of references to valid blocks.
system.cpu.icache.tags.warmup_cycle            113000                       # Cycle when the warmup percentage was hit.
system.cpu.icache.tags.occ_blocks::.cpu.inst   354.030919                       # Average occupied blocks per requestor
system.cpu.icache.tags.occ_percent::.cpu.inst     0.172867                       # Average percentage of cache occupancy
system.cpu.icache.tags.occ_percent::total     0.172867                       # Average percentage of cache occupancy
system.cpu.icache.tags.occ_task_id_blocks::1024          385                       # Occupied blocks per task id
system.cpu.icache.tags.age_task_id_blocks_1024::0           27                       # Occupied blocks per task id
system.cpu.icache.tags.age_task_id_blocks_1024::3            4                       # Occupied blocks per task id
system.cpu.icache.tags.age_task_id_blocks_1024::4          354                       # Occupied blocks per task id
system.cpu.icache.tags.occ_task_id_percent::1024     0.187988                       # Percentage of cache occupancy per task id
system.cpu.icache.tags.tag_accesses          13702191                       # Number of tag accesses
system.cpu.icache.tags.data_accesses         13702191                       # Number of data accesses
system.cpu.dtb.walker.pwrStateResidencyTicks::UNDEFINED  36135911000                       # Cumulative time (in ticks) in various power states
system.cpu.interrupts.clk_domain.clock          16000                       # Clock period in ticks
system.cpu.dcache.pwrStateResidencyTicks::UNDEFINED  36135911000                       # Cumulative time (in ticks) in various power states
system.cpu.dcache.demand_hits::.cpu.data      1349897                       # number of demand (read+write) hits
system.cpu.dcache.demand_hits::total          1349897                       # number of demand (read+write) hits
system.cpu.dcache.overall_hits::.cpu.data      1349897                       # number of overall hits
system.cpu.dcache.overall_hits::total         1349897                       # number of overall hits
system.cpu.dcache.demand_misses::.cpu.data       975979                       # number of demand (read+write) misses
system.cpu.dcache.demand_misses::total         975979                       # number of demand (read+write) misses
system.cpu.dcache.overall_misses::.cpu.data       975979                       # number of overall misses
system.cpu.dcache.overall_misses::total        975979                       # number of overall misses
system.cpu.dcache.demand_miss_latency::.cpu.data  25387446000                       # number of demand (read+write) miss cycles
system.cpu.dcache.demand_miss_latency::total  25387446000                       # number of demand (read+write) miss cycles
system.cpu.dcache.overall_miss_latency::.cpu.data  25387446000                       # number of overall miss cycles
system.cpu.dcache.overall_miss_latency::total  25387446000                       # number of overall miss cycles
system.cpu.dcache.demand_accesses::.cpu.data      2325876                       # number of demand (read+write) accesses
system.cpu.dcache.demand_accesses::total      2325876                       # number of demand (read+write) accesses
system.cpu.dcache.overall_accesses::.cpu.data      2325876                       # number of overall (read+write) accesses
system.cpu.dcache.overall_accesses::total      2325876                       # number of overall (read+write) accesses
system.cpu.dcache.demand_miss_rate::.cpu.data     0.419618                       # miss rate for demand accesses
system.cpu.dcache.demand_miss_rate::total     0.419618                       # miss rate for demand accesses
system.cpu.dcache.overall_miss_rate::.cpu.data     0.419618                       # miss rate for overall accesses
system.cpu.dcache.overall_miss_rate::total     0.419618                       # miss rate for overall accesses
system.cpu.dcache.demand_avg_miss_latency::.cpu.data 26012.287150                       # average overall miss latency
system.cpu.dcache.demand_avg_miss_latency::total 26012.287150                       # average overall miss latency
system.cpu.dcache.overall_avg_miss_latency::.cpu.data 26012.287150                       # average overall miss latency
system.cpu.dcache.overall_avg_miss_latency::total 26012.287150                       # average overall miss latency
system.cpu.dcache.blocked_cycles::no_mshrs            0                       # number of cycles access was blocked
system.cpu.dcache.blocked_cycles::no_targets            0                       # number of cycles access was blocked
system.cpu.dcache.blocked::no_mshrs                 0                       # number of cycles access was blocked
system.cpu.dcache.blocked::no_targets               0                       # number of cycles access was blocked
system.cpu.dcache.avg_blocked_cycles::no_mshrs          nan                       # average number of cycles each access was blocked
system.cpu.dcache.avg_blocked_cycles::no_targets          nan                       # average number of cycles each access was blocked
system.cpu.dcache.writebacks::.writebacks       763175                       # number of writebacks
system.cpu.dcache.writebacks::total            763175                       # number of writebacks
system.cpu.dcache.demand_mshr_hits::.cpu.data       210721                       # number of demand (read+write) MSHR hits
system.cpu.dcache.demand_mshr_hits::total       210721                       # number of demand (read+write) MSHR hits
system.cpu.dcache.overall_mshr_hits::.cpu.data       210721                       # number of overall MSHR hits
system.cpu.dcache.overall_mshr_hits::total       210721                       # number of overall MSHR hits
system.cpu.dcache.demand_mshr_misses::.cpu.data       765258                       # number of demand (read+write) MSHR misses
system.cpu.dcache.demand_mshr_misses::total       765258                       # number of demand (read+write) MSHR misses
system.cpu.dcache.overall_mshr_misses::.cpu.data       765258                       # number of overall MSHR misses
system.cpu.dcache.overall_mshr_misses::total       765258                       # number of overall MSHR misses
system.cpu.dcache.demand_mshr_miss_latency::.cpu.data  19641185000                       # number of demand (read+write) MSHR miss cycles
system.cpu.dcache.demand_mshr_miss_latency::total  19641185000                       # number of demand (read+write) MSHR miss cycles
system.cpu.dcache.overall_mshr_miss_latency::.cpu.data  19641185000                       # number of overall MSHR miss cycles
system.cpu.dcache.overall_mshr_miss_latency::total  19641185000                       # number of overall MSHR miss cycles
system.cpu.dcache.demand_mshr_miss_rate::.cpu.data     0.329019                       # mshr miss rate for demand accesses
system.cpu.dcache.demand_mshr_miss_rate::total     0.329019                       # mshr miss rate for demand accesses
system.cpu.dcache.overall_mshr_miss_rate::.cpu.data     0.329019                       # mshr miss rate for overall accesses
system.cpu.dcache.overall_mshr_miss_rate::total     0.329019                       # mshr miss rate for overall accesses
system.cpu.dcache.demand_avg_mshr_miss_latency::.cpu.data 25666.095617                       # average overall mshr miss latency
system.cpu.dcache.demand_avg_mshr_miss_latency::total 25666.095617                       # average overall mshr miss latency
system.cpu.dcache.overall_avg_mshr_miss_latency::.cpu.data 25666.095617                       # average overall mshr miss latency
system.cpu.dcache.overall_avg_mshr_miss_latency::total 25666.095617                       # average overall mshr miss latency
system.cpu.dcache.replacements                 763210                       # number of replacements
system.cpu.dcache.ReadReq_hits::.cpu.data       111319                       # number of ReadReq hits
system.cpu.dcache.ReadReq_hits::total          111319                       # number of ReadReq hits
system.cpu.dcache.ReadReq_misses::.cpu.data        15653                       # number of ReadReq misses
system.cpu.dcache.ReadReq_misses::total         15653                       # number of ReadReq misses
system.cpu.dcache.ReadReq_miss_latency::.cpu.data    415006000                       # number of ReadReq miss cycles
system.cpu.dcache.ReadReq_miss_latency::total    415006000                       # number of ReadReq miss cycles
system.cpu.dcache.ReadReq_accesses::.cpu.data       126972                       # number of ReadReq accesses(hits+misses)
system.cpu.dcache.ReadReq_accesses::total       126972                       # number of ReadReq accesses(hits+misses)
system.cpu.dcache.ReadReq_miss_rate::.cpu.data     0.123279                       # miss rate for ReadReq accesses
system.cpu.dcache.ReadReq_miss_rate::total     0.123279                       # miss rate for ReadReq accesses
system.cpu.dcache.ReadReq_avg_miss_latency::.cpu.data 26512.872932                       # average ReadReq miss latency
system.cpu.dcache.ReadReq_avg_miss_latency::total 26512.872932                       # average ReadReq miss latency
system.cpu.dcache.ReadReq_mshr_hits::.cpu.data            9                       # number of ReadReq MSHR hits
system.cpu.dcache.ReadReq_mshr_hits::total            9                       # number of ReadReq MSHR hits
system.cpu.dcache.ReadReq_mshr_misses::.cpu.data        15644                       # number of ReadReq MSHR misses
system.cpu.dcache.ReadReq_mshr_misses::total        15644                       # number of ReadReq MSHR misses
system.cpu.dcache.ReadReq_mshr_miss_latency::.cpu.data    382831000                       # number of ReadReq MSHR miss cycles
system.cpu.dcache.ReadReq_mshr_miss_latency::total    382831000                       # number of ReadReq MSHR miss cycles
system.cpu.dcache.ReadReq_mshr_miss_rate::.cpu.data     0.123208                       # mshr miss rate for ReadReq accesses
system.cpu.dcache.ReadReq_mshr_miss_rate::total     0.123208                       # mshr miss rate for ReadReq accesses
system.cpu.dcache.ReadReq_avg_mshr_miss_latency::.cpu.data 24471.426745                       # average ReadReq mshr miss latency
system.cpu.dcache.ReadReq_avg_mshr_miss_latency::total 24471.426745                       # average ReadReq mshr miss latency
system.cpu.dcache.WriteReq_hits::.cpu.data      1238578                       # number of WriteReq hits
system.cpu.dcache.WriteReq_hits::total        1238578                       # number of WriteReq hits
system.cpu.dcache.WriteReq_misses::.cpu.data       960326                       # number of WriteReq misses
system.cpu.dcache.WriteReq_misses::total       960326                       # number of WriteReq misses
system.cpu.dcache.WriteReq_miss_latency::.cpu.data  24972440000                       # number of WriteReq miss cycles
system.cpu.dcache.WriteReq_miss_latency::total  24972440000                       # number of WriteReq miss cycles
system.cpu.dcache.WriteReq_accesses::.cpu.data      2198904                       # number of WriteReq accesses(hits+misses)
system.cpu.dcache.WriteReq_accesses::total      2198904                       # number of WriteReq accesses(hits+misses)
system.cpu.dcache.WriteReq_miss_rate::.cpu.data     0.436729                       # miss rate for WriteReq accesses
system.cpu.dcache.WriteReq_miss_rate::total     0.436729                       # miss rate for WriteReq accesses
system.cpu.dcache.WriteReq_avg_miss_latency::.cpu.data 26004.127765                       # average WriteReq miss latency
system.cpu.dcache.WriteReq_avg_miss_latency::total 26004.127765                       # average WriteReq miss latency
system.cpu.dcache.WriteReq_mshr_hits::.cpu.data       210712                       # number of WriteReq MSHR hits
system.cpu.dcache.WriteReq_mshr_hits::total       210712                       # number of WriteReq MSHR hits
system.cpu.dcache.WriteReq_mshr_misses::.cpu.data       749614                       # number of WriteReq MSHR misses
system.cpu.dcache.WriteReq_mshr_misses::total       749614                       # number of WriteReq MSHR misses
system.cpu.dcache.WriteReq_mshr_miss_latency::.cpu.data  19258354000                       # number of WriteReq MSHR miss cycles
system.cpu.dcache.WriteReq_mshr_miss_latency::total  19258354000                       # number of WriteReq MSHR miss cycles
system.cpu.dcache.WriteReq_mshr_miss_rate::.cpu.data     0.340903                       # mshr miss rate for WriteReq accesses
system.cpu.dcache.WriteReq_mshr_miss_rate::total     0.340903                       # mshr miss rate for WriteReq accesses
system.cpu.dcache.WriteReq_avg_mshr_miss_latency::.cpu.data 25691.027649                       # average WriteReq mshr miss latency
system.cpu.dcache.WriteReq_avg_mshr_miss_latency::total 25691.027649                       # average WriteReq mshr miss latency
system.cpu.dcache.tags.pwrStateResidencyTicks::UNDEFINED  36135911000                       # Cumulative time (in ticks) in various power states
system.cpu.dcache.tags.tagsinuse          2020.009185                       # Cycle average of tags in use
system.cpu.dcache.tags.total_refs             2115155                       # Total number of references to valid blocks.
system.cpu.dcache.tags.sampled_refs            765258                       # Sample count of references to valid blocks.
system.cpu.dcache.tags.avg_refs              2.763976                       # Average number of references to valid blocks.
system.cpu.dcache.tags.warmup_cycle            233000                       # Cycle when the warmup percentage was hit.
system.cpu.dcache.tags.occ_blocks::.cpu.data  2020.009185                       # Average occupied blocks per requestor
system.cpu.dcache.tags.occ_percent::.cpu.data     0.986333                       # Average percentage of cache occupancy
system.cpu.dcache.tags.occ_percent::total     0.986333                       # Average percentage of cache occupancy
system.cpu.dcache.tags.occ_task_id_blocks::1024         2048                       # Occupied blocks per task id
system.cpu.dcache.tags.age_task_id_blocks_1024::0           46                       # Occupied blocks per task id
system.cpu.dcache.tags.age_task_id_blocks_1024::1          300                       # Occupied blocks per task id
system.cpu.dcache.tags.age_task_id_blocks_1024::2         1702                       # Occupied blocks per task id
system.cpu.dcache.tags.occ_task_id_percent::1024            1                       # Percentage of cache occupancy per task id
system.cpu.dcache.tags.tag_accesses           5417010                       # Number of tag accesses
system.cpu.dcache.tags.data_accesses          5417010                       # Number of data accesses
system.cpu.itb.walker.pwrStateResidencyTicks::UNDEFINED  36135911000                       # Cumulative time (in ticks) in various power states
system.l2cache.pwrStateResidencyTicks::UNDEFINED  36135911000                       # Cumulative time (in ticks) in various power states
system.l2cache.demand_hits::.cpu.inst               1                       # number of demand (read+write) hits
system.l2cache.demand_hits::.cpu.data          749465                       # number of demand (read+write) hits
system.l2cache.demand_hits::total              749466                       # number of demand (read+write) hits
system.l2cache.overall_hits::.cpu.inst              1                       # number of overall hits
system.l2cache.overall_hits::.cpu.data         749465                       # number of overall hits
system.l2cache.overall_hits::total             749466                       # number of overall hits
system.l2cache.demand_misses::.cpu.inst           384                       # number of demand (read+write) misses
system.l2cache.demand_misses::.cpu.data         15793                       # number of demand (read+write) misses
system.l2cache.demand_misses::total             16177                       # number of demand (read+write) misses
system.l2cache.overall_misses::.cpu.inst          384                       # number of overall misses
system.l2cache.overall_misses::.cpu.data        15793                       # number of overall misses
system.l2cache.overall_misses::total            16177                       # number of overall misses
system.l2cache.demand_miss_latency::.cpu.inst     40565000                       # number of demand (read+write) miss cycles
system.l2cache.demand_miss_latency::.cpu.data   1606643000                       # number of demand (read+write) miss cycles
system.l2cache.demand_miss_latency::total   1647208000                       # number of demand (read+write) miss cycles
system.l2cache.overall_miss_latency::.cpu.inst     40565000                       # number of overall miss cycles
system.l2cache.overall_miss_latency::.cpu.data   1606643000                       # number of overall miss cycles
system.l2cache.overall_miss_latency::total   1647208000                       # number of overall miss cycles
system.l2cache.demand_accesses::.cpu.inst          385                       # number of demand (read+write) accesses
system.l2cache.demand_accesses::.cpu.data       765258                       # number of demand (read+write) accesses
system.l2cache.demand_accesses::total          765643                       # number of demand (read+write) accesses
system.l2cache.overall_accesses::.cpu.inst          385                       # number of overall (read+write) accesses
system.l2cache.overall_accesses::.cpu.data       765258                       # number of overall (read+write) accesses
system.l2cache.overall_accesses::total         765643                       # number of overall (read+write) accesses
system.l2cache.demand_miss_rate::.cpu.inst     0.997403                       # miss rate for demand accesses
system.l2cache.demand_miss_rate::.cpu.data     0.020637                       # miss rate for demand accesses
system.l2cache.demand_miss_rate::total       0.021129                       # miss rate for demand accesses
system.l2cache.overall_miss_rate::.cpu.inst     0.997403                       # miss rate for overall accesses
system.l2cache.overall_miss_rate::.cpu.data     0.020637                       # miss rate for overall accesses
system.l2cache.overall_miss_rate::total      0.021129                       # miss rate for overall accesses
system.l2cache.demand_avg_miss_latency::.cpu.inst 105638.020833                       # average overall miss latency
system.l2cache.demand_avg_miss_latency::.cpu.data 101731.336668                       # average overall miss latency
system.l2cache.demand_avg_miss_latency::total 101824.071212                       # average overall miss latency
system.l2cache.overall_avg_miss_latency::.cpu.inst 105638.020833                       # average overall miss latency
system.l2cache.overall_avg_miss_latency::.cpu.data 101731.336668                       # average overall miss latency
system.l2cache.overall_avg_miss_latency::total 101824.071212                       # average overall miss latency
system.l2cache.blocked_cycles::no_mshrs             0                       # number of cycles access was blocked
system.l2cache.blocked_cycles::no_targets            0                       # number of cycles access was blocked
system.l2cache.blocked::no_mshrs                    0                       # number of cycles access was blocked
system.l2cache.blocked::no_targets                  0                       # number of cycles access was blocked
system.l2cache.avg_blocked_cycles::no_mshrs          nan                       # average number of cycles each access was blocked
system.l2cache.avg_blocked_cycles::no_targets          nan                       # average number of cycles each access was blocked
system.l2cache.writebacks::.writebacks             26                       # number of writebacks
system.l2cache.writebacks::total                   26                       # number of writebacks
system.l2cache.demand_mshr_misses::.cpu.inst          384                       # number of demand (read+write) MSHR misses
system.l2cache.demand_mshr_misses::.cpu.data        15793                       # number of demand (read+write) MSHR misses
system.l2cache.demand_mshr_misses::total        16177                       # number of demand (read+write) MSHR misses
system.l2cache.overall_mshr_misses::.cpu.inst          384                       # number of overall MSHR misses
system.l2cache.overall_mshr_misses::.cpu.data        15793                       # number of overall MSHR misses
system.l2cache.overall_mshr_misses::total        16177                       # number of overall MSHR misses
system.l2cache.demand_mshr_miss_latency::.cpu.inst     32885000                       # number of demand (read+write) MSHR miss cycles
system.l2cache.demand_mshr_miss_latency::.cpu.data   1290783000                       # number of demand (read+write) MSHR miss cycles
system.l2cache.demand_mshr_miss_latency::total   1323668000                       # number of demand (read+write) MSHR miss cycles
system.l2cache.overall_mshr_miss_latency::.cpu.inst     32885000                       # number of overall MSHR miss cycles
system.l2cache.overall_mshr_miss_latency::.cpu.data   1290783000                       # number of overall MSHR miss cycles
system.l2cache.overall_mshr_miss_latency::total   1323668000                       # number of overall MSHR miss cycles
system.l2cache.demand_mshr_miss_rate::.cpu.inst     0.997403                       # mshr miss rate for demand accesses
system.l2cache.demand_mshr_miss_rate::.cpu.data     0.020637                       # mshr miss rate for demand accesses
system.l2cache.demand_mshr_miss_rate::total     0.021129                       # mshr miss rate for demand accesses
system.l2cache.overall_mshr_miss_rate::.cpu.inst     0.997403                       # mshr miss rate for overall accesses
system.l2cache.overall_mshr_miss_rate::.cpu.data     0.020637                       # mshr miss rate for overall accesses
system.l2cache.overall_mshr_miss_rate::total     0.021129                       # mshr miss rate for overall accesses
system.l2cache.demand_avg_mshr_miss_latency::.cpu.inst 85638.020833                       # average overall mshr miss latency
system.l2cache.demand_avg_mshr_miss_latency::.cpu.data 81731.336668                       # average overall mshr miss latency
system.l2cache.demand_avg_mshr_miss_latency::total 81824.071212                       # average overall mshr miss latency
system.l2cache.overall_avg_mshr_miss_latency::.cpu.inst 85638.020833                       # average overall mshr miss latency
system.l2cache.overall_avg_mshr_miss_latency::.cpu.data 81731.336668                       # average overall mshr miss latency
system.l2cache.overall_avg_mshr_miss_latency::total 81824.071212                       # average overall mshr miss latency
system.l2cache.replacements                       292                       # number of replacements
system.l2cache.WritebackDirty_hits::.writebacks       763175                       # number of WritebackDirty hits
system.l2cache.WritebackDirty_hits::total       763175                       # number of WritebackDirty hits
system.l2cache.WritebackDirty_accesses::.writebacks       763175                       # number of WritebackDirty accesses(hits+misses)
system.l2cache.WritebackDirty_accesses::total       763175                       # number of WritebackDirty accesses(hits+misses)
system.l2cache.ReadExReq_hits::.cpu.data       733895                       # number of ReadExReq hits
system.l2cache.ReadExReq_hits::total           733895                       # number of ReadExReq hits
system.l2cache.ReadExReq_misses::.cpu.data        15719                       # number of ReadExReq misses
system.l2cache.ReadExReq_misses::total          15719                       # number of ReadExReq misses
system.l2cache.ReadExReq_miss_latency::.cpu.data   1597717000                       # number of ReadExReq miss cycles
system.l2cache.ReadExReq_miss_latency::total   1597717000                       # number of ReadExReq miss cycles
system.l2cache.ReadExReq_accesses::.cpu.data       749614                       # number of ReadExReq accesses(hits+misses)
system.l2cache.ReadExReq_accesses::total       749614                       # number of ReadExReq accesses(hits+misses)
system.l2cache.ReadExReq_miss_rate::.cpu.data     0.020969                       # miss rate for ReadExReq accesses
system.l2cache.ReadExReq_miss_rate::total     0.020969                       # miss rate for ReadExReq accesses
system.l2cache.ReadExReq_avg_miss_latency::.cpu.data 101642.407278                       # average ReadExReq miss latency
system.l2cache.ReadExReq_avg_miss_latency::total 101642.407278                       # average ReadExReq miss latency
system.l2cache.ReadExReq_mshr_misses::.cpu.data        15719                       # number of ReadExReq MSHR misses
system.l2cache.ReadExReq_mshr_misses::total        15719                       # number of ReadExReq MSHR misses
system.l2cache.ReadExReq_mshr_miss_latency::.cpu.data   1283337000                       # number of ReadExReq MSHR miss cycles
system.l2cache.ReadExReq_mshr_miss_latency::total   1283337000                       # number of ReadExReq MSHR miss cycles
system.l2cache.ReadExReq_mshr_miss_rate::.cpu.data     0.020969                       # mshr miss rate for ReadExReq accesses
system.l2cache.ReadExReq_mshr_miss_rate::total     0.020969                       # mshr miss rate for ReadExReq accesses
system.l2cache.ReadExReq_avg_mshr_miss_latency::.cpu.data 81642.407278                       # average ReadExReq mshr miss latency
system.l2cache.ReadExReq_avg_mshr_miss_latency::total 81642.407278                       # average ReadExReq mshr miss latency
system.l2cache.ReadSharedReq_hits::.cpu.inst            1                       # number of ReadSharedReq hits
system.l2cache.ReadSharedReq_hits::.cpu.data        15570                       # number of ReadSharedReq hits
system.l2cache.ReadSharedReq_hits::total        15571                       # number of ReadSharedReq hits
system.l2cache.ReadSharedReq_misses::.cpu.inst          384                       # number of ReadSharedReq misses
system.l2cache.ReadSharedReq_misses::.cpu.data           74                       # number of ReadSharedReq misses
system.l2cache.ReadSharedReq_misses::total          458                       # number of ReadSharedReq misses
system.l2cache.ReadSharedReq_miss_latency::.cpu.inst     40565000                       # number of ReadSharedReq miss cycles
system.l2cache.ReadSharedReq_miss_latency::.cpu.data      8926000                       # number of ReadSharedReq miss cycles
system.l2cache.ReadSharedReq_miss_latency::total     49491000                       # number of ReadSharedReq miss cycles
system.l2cache.ReadSharedReq_accesses::.cpu.inst          385                       # number of ReadSharedReq accesses(hits+misses)
system.l2cache.ReadSharedReq_accesses::.cpu.data        15644                       # number of ReadSharedReq accesses(hits+misses)
system.l2cache.ReadSharedReq_accesses::total        16029                       # number of ReadSharedReq accesses(hits+misses)
system.l2cache.ReadSharedReq_miss_rate::.cpu.inst     0.997403                       # miss rate for ReadSharedReq accesses
system.l2cache.ReadSharedReq_miss_rate::.cpu.data     0.004730                       # miss rate for ReadSharedReq accesses
system.l2cache.ReadSharedReq_miss_rate::total     0.028573                       # miss rate for ReadSharedReq accesses
system.l2cache.ReadSharedReq_avg_miss_latency::.cpu.inst 105638.020833                       # average ReadSharedReq miss latency
system.l2cache.ReadSharedReq_avg_miss_latency::.cpu.data 120621.621622                       # average ReadSharedReq miss latency
system.l2cache.ReadSharedReq_avg_miss_latency::total 108058.951965                       # average ReadSharedReq miss latency
system.l2cache.ReadSharedReq_mshr_misses::.cpu.inst          384                       # number of ReadSharedReq MSHR misses
system.l2cache.ReadSharedReq_mshr_misses::.cpu.data           74                       # number of ReadSharedReq MSHR misses
system.l2cache.ReadSharedReq_mshr_misses::total          458                       # number of ReadSharedReq MSHR misses
system.l2cache.ReadSharedReq_mshr_miss_latency::.cpu.inst     32885000                       # number of ReadSharedReq MSHR miss cycles
system.l2cache.ReadSharedReq_mshr_miss_latency::.cpu.data      7446000                       # number of ReadSharedReq MSHR miss cycles
system.l2cache.ReadSharedReq_mshr_miss_latency::total     40331000                       # number of ReadSharedReq MSHR miss cycles
system.l2cache.ReadSharedReq_mshr_miss_rate::.cpu.inst     0.997403                       # mshr miss rate for ReadSharedReq accesses
system.l2cache.ReadSharedReq_mshr_miss_rate::.cpu.data     0.004730                       # mshr miss rate for ReadSharedReq accesses
system.l2cache.ReadSharedReq_mshr_miss_rate::total     0.028573                       # mshr miss rate for ReadSharedReq accesses
system.l2cache.ReadSharedReq_avg_mshr_miss_latency::.cpu.inst 85638.020833                       # average ReadSharedReq mshr miss latency
system.l2cache.ReadSharedReq_avg_mshr_miss_latency::.cpu.data 100621.621622                       # average ReadSharedReq mshr miss latency
system.l2cache.ReadSharedReq_avg_mshr_miss_latency::total 88058.951965                       # average ReadSharedReq mshr miss latency
system.l2cache.tags.pwrStateResidencyTicks::UNDEFINED  36135911000                       # Cumulative time (in ticks) in various power states
system.l2cache.tags.tagsinuse            14250.466280                       # Cycle average of tags in use
system.l2cache.tags.total_refs                1528852                       # Total number of references to valid blocks.
system.l2cache.tags.sampled_refs                16177                       # Sample count of references to valid blocks.
system.l2cache.tags.avg_refs                94.507758                       # Average number of references to valid blocks.
system.l2cache.tags.warmup_cycle                92000                       # Cycle when the warmup percentage was hit.
system.l2cache.tags.occ_blocks::.cpu.inst   152.399617                       # Average occupied blocks per requestor
system.l2cache.tags.occ_blocks::.cpu.data 14098.066663                       # Average occupied blocks per requestor
system.l2cache.tags.occ_percent::.cpu.inst     0.009302                       # Average percentage of cache occupancy
system.l2cache.tags.occ_percent::.cpu.data     0.860478                       # Average percentage of cache occupancy
system.l2cache.tags.occ_percent::total       0.869779                       # Average percentage of cache occupancy
system.l2cache.tags.occ_task_id_blocks::1024        15885                       # Occupied blocks per task id
system.l2cache.tags.age_task_id_blocks_1024::0           44                       # Occupied blocks per task id
system.l2cache.tags.age_task_id_blocks_1024::2            1                       # Occupied blocks per task id
system.l2cache.tags.age_task_id_blocks_1024::3            5                       # Occupied blocks per task id
system.l2cache.tags.age_task_id_blocks_1024::4        15835                       # Occupied blocks per task id
system.l2cache.tags.occ_task_id_percent::1024     0.969543                       # Percentage of cache occupancy per task id
system.l2cache.tags.tag_accesses             12246993                       # Number of tag accesses
system.l2cache.tags.data_accesses            12246993                       # Number of data accesses
system.mem_ctrl.pwrStateResidencyTicks::UNDEFINED  36135911000                       # Cumulative time (in ticks) in various power states
system.mem_ctrl.bytes_read::.cpu.inst           24576                       # Number of bytes read from this memory
system.mem_ctrl.bytes_read::.cpu.data         1010752                       # Number of bytes read from this memory
system.mem_ctrl.bytes_read::total             1035328                       # Number of bytes read from this memory
system.mem_ctrl.bytes_inst_read::.cpu.inst        24576                       # Number of instructions bytes read from this memory
system.mem_ctrl.bytes_inst_read::total          24576                       # Number of instructions bytes read from this memory
system.mem_ctrl.bytes_written::.writebacks         1664                       # Number of bytes written to this memory
system.mem_ctrl.bytes_written::total             1664                       # Number of bytes written to this memory
system.mem_ctrl.num_reads::.cpu.inst              384                       # Number of read requests responded to by this memory
system.mem_ctrl.num_reads::.cpu.data            15793                       # Number of read requests responded to by this memory
system.mem_ctrl.num_reads::total                16177                       # Number of read requests responded to by this memory
system.mem_ctrl.num_writes::.writebacks            26                       # Number of write requests responded to by this memory
system.mem_ctrl.num_writes::total                  26                       # Number of write requests responded to by this memory
system.mem_ctrl.bw_read::.cpu.inst             680099                       # Total read bandwidth from this memory (bytes/s)
system.mem_ctrl.bw_read::.cpu.data           27970846                       # Total read bandwidth from this memory (bytes/s)
system.mem_ctrl.bw_read::total               28650945                       # Total read bandwidth from this memory (bytes/s)
system.mem_ctrl.bw_inst_read::.cpu.inst        680099                       # Instruction read bandwidth from this memory (bytes/s)
system.mem_ctrl.bw_inst_read::total            680099                       # Instruction read bandwidth from this memory (bytes/s)
system.mem_ctrl.bw_write::.writebacks           46048                       # Write bandwidth from this memory (bytes/s)
system.mem_ctrl.bw_write::total                 46048                       # Write bandwidth from this memory (bytes/s)
system.mem_ctrl.bw_total::.writebacks           46048                       # Total bandwidth to/from this memory (bytes/s)
system.mem_ctrl.bw_total::.cpu.inst            680099                       # Total bandwidth to/from this memory (bytes/s)
system.mem_ctrl.bw_total::.cpu.data          27970846                       # Total bandwidth to/from this memory (bytes/s)
system.mem_ctrl.bw_total::total              28696993                       # Total bandwidth to/from this memory (bytes/s)
system.mem_ctrl.avgPriority_.writebacks::samples        52.00                       # Average QoS priority value for accepted requests
system.mem_ctrl.avgPriority_.cpu.inst::samples       768.00                       # Average QoS priority value for accepted requests
system.mem_ctrl.avgPriority_.cpu.data::samples     31582.00                       # Average QoS priority value for accepted requests
system.mem_ctrl.priorityMinLatency       0.000000019000                       # per QoS priority minimum request to response latency (s)
system.mem_ctrl.priorityMaxLatency       0.009373549000                       # per QoS priority maximum request to response latency (s)
system.mem_ctrl.numReadWriteTurnArounds             2                       # Number of turnarounds from READ to WRITE
system.mem_ctrl.numWriteReadTurnArounds             2                       # Number of turnarounds from WRITE to READ
system.mem_ctrl.numStayReadState                57843                       # Number of times bus staying in READ state
system.mem_ctrl.numStayWriteState                  30                       # Number of times bus staying in WRITE state
system.mem_ctrl.readReqs                        16177                       # Number of read requests accepted
system.mem_ctrl.writeReqs                          26                       # Number of write requests accepted
system.mem_ctrl.readBursts                      32354                       # Number of DRAM read bursts, including those serviced by the write queue
system.mem_ctrl.writeBursts                        52                       # Number of DRAM write bursts, including those merged in the write queue
system.mem_ctrl.servicedByWrQ                       4                       # Number of DRAM read bursts serviced by the write queue
system.mem_ctrl.mergedWrBursts                      0                       # Number of DRAM write bursts merged with an existing one
system.mem_ctrl.neitherReadNorWriteReqs             0                       # Number of requests that are neither read nor write
system.mem_ctrl.perBankRdBursts::0               2008                       # Per bank write bursts
system.mem_ctrl.perBankRdBursts::1               2016                       # Per bank write bursts
system.mem_ctrl.perBankRdBursts::2               1976                       # Per bank write bursts
system.mem_ctrl.perBankRdBursts::3               2032                       # Per bank write bursts
system.mem_ctrl.perBankRdBursts::4               2032                       # Per bank write bursts
system.mem_ctrl.perBankRdBursts::5               2048                       # Per bank write bursts
system.mem_ctrl.perBankRdBursts::6               2048                       # Per bank write bursts
system.mem_ctrl.perBankRdBursts::7               2070                       # Per bank write bursts
system.mem_ctrl.perBankRdBursts::8               2074                       # Per bank write bursts
system.mem_ctrl.perBankRdBursts::9               2042                       # Per bank write bursts
system.mem_ctrl.perBankRdBursts::10              2034                       # Per bank write bursts
system.mem_ctrl.perBankRdBursts::11              2024                       # Per bank write bursts
system.mem_ctrl.perBankRdBursts::12              1986                       # Per bank write bursts
system.mem_ctrl.perBankRdBursts::13              2000                       # Per bank write bursts
system.mem_ctrl.perBankRdBursts::14              1980                       # Per bank write bursts
system.mem_ctrl.perBankRdBursts::15              1980                       # Per bank write bursts
system.mem_ctrl.perBankWrBursts::0                  0                       # Per bank write bursts
system.mem_ctrl.perBankWrBursts::1                  0                       # Per bank write bursts
system.mem_ctrl.perBankWrBursts::2                  0                       # Per bank write bursts
system.mem_ctrl.perBankWrBursts::3                  0                       # Per bank write bursts
system.mem_ctrl.perBankWrBursts::4                  0                       # Per bank write bursts
system.mem_ctrl.perBankWrBursts::5                 14                       # Per bank write bursts
system.mem_ctrl.perBankWrBursts::6                  4                       # Per bank write bursts
system.mem_ctrl.perBankWrBursts::7                  0                       # Per bank write bursts
system.mem_ctrl.perBankWrBursts::8                  0                       # Per bank write bursts
system.mem_ctrl.perBankWrBursts::9                  0                       # Per bank write bursts
system.mem_ctrl.perBankWrBursts::10                 0                       # Per bank write bursts
system.mem_ctrl.perBankWrBursts::11                 0                       # Per bank write bursts
system.mem_ctrl.perBankWrBursts::12                10                       # Per bank write bursts
system.mem_ctrl.perBankWrBursts::13                 0                       # Per bank write bursts
system.mem_ctrl.perBankWrBursts::14                 4                       # Per bank write bursts
system.mem_ctrl.perBankWrBursts::15                 0                       # Per bank write bursts
system.mem_ctrl.avgRdQLen                        2.00                       # Average read queue length when enqueuing
system.mem_ctrl.avgWrQLen                        0.41                       # Average write queue length when enqueuing
system.mem_ctrl.totQLat                     317969000                       # Total ticks spent queuing
system.mem_ctrl.totBusLat                   129400000                       # Total ticks spent in databus transfers
system.mem_ctrl.totMemAccLat                932619000                       # Total ticks spent from burst creation until serviced by the DRAM
system.mem_ctrl.avgQLat                       9829.03                       # Average queueing delay per DRAM burst
system.mem_ctrl.avgBusLat                     4000.00                       # Average bus latency per DRAM burst
system.mem_ctrl.avgMemAccLat                 28829.03                       # Average memory access latency per DRAM burst
system.mem_ctrl.numRdRetry                          0                       # Number of times read queue was full causing retry
system.mem_ctrl.numWrRetry                          0                       # Number of times write queue was full causing retry
system.mem_ctrl.readRowHits                     29227                       # Number of row buffer hits during reads
system.mem_ctrl.writeRowHits                       27                       # Number of row buffer hits during writes
system.mem_ctrl.readRowHitRate                  90.35                       # Row buffer hit rate for reads
system.mem_ctrl.writeRowHitRate                 51.92                       # Row buffer hit rate for writes
system.mem_ctrl.readPktSize::0                      0                       # Read request sizes (log2)
system.mem_ctrl.readPktSize::1                      0                       # Read request sizes (log2)
system.mem_ctrl.readPktSize::2                      0                       # Read request sizes (log2)
system.mem_ctrl.readPktSize::3                      0                       # Read request sizes (log2)
system.mem_ctrl.readPktSize::4                      0                       # Read request sizes (log2)
system.mem_ctrl.readPktSize::5                  32354                       # Read request sizes (log2)
system.mem_ctrl.writePktSize::0                     0                       # Write request sizes (log2)
system.mem_ctrl.writePktSize::1                     0                       # Write request sizes (log2)
system.mem_ctrl.writePktSize::2                     0                       # Write request sizes (log2)
system.mem_ctrl.writePktSize::3                     0                       # Write request sizes (log2)
system.mem_ctrl.writePktSize::4                     0                       # Write request sizes (log2)
system.mem_ctrl.writePktSize::5                    52                       # Write request sizes (log2)
system.mem_ctrl.rdQLenPdf::0                    16104                       # What read queue length does an incoming req see
system.mem_ctrl.rdQLenPdf::1                    16106                       # What read queue length does an incoming req see
system.mem_ctrl.rdQLenPdf::2                       68                       # What read queue length does an incoming req see
system.mem_ctrl.rdQLenPdf::3                       66                       # What read queue length does an incoming req see
system.mem_ctrl.rdQLenPdf::4                        3                       # What read queue length does an incoming req see
system.mem_ctrl.rdQLenPdf::5                        3                       # What read queue length does an incoming req see
system.mem_ctrl.rdQLenPdf::6                        0                       # What read queue length does an incoming req see
system.mem_ctrl.rdQLenPdf::7                        0                       # What read queue length does an incoming req see
system.mem_ctrl.rdQLenPdf::8                        0                       # What read queue length does an incoming req see
system.mem_ctrl.rdQLenPdf::9                        0                       # What read queue length does an incoming req see
system.mem_ctrl.rdQLenPdf::10                       0                       # What read queue length does an incoming req see
system.mem_ctrl.rdQLenPdf::11                       0                       # What read queue length does an incoming req see
system.mem_ctrl.rdQLenPdf::12                       0                       # What read queue length does an incoming req see
system.mem_ctrl.rdQLenPdf::13                       0                       # What read queue length does an incoming req see
system.mem_ctrl.rdQLenPdf::14                       0                       # What read queue length does an incoming req see
system.mem_ctrl.rdQLenPdf::15                       0                       # What read queue length does an incoming req see
system.mem_ctrl.rdQLenPdf::16                       0                       # What read queue length does an incoming req see
system.mem_ctrl.rdQLenPdf::17                       0                       # What read queue length does an incoming req see
system.mem_ctrl.rdQLenPdf::18                       0                       # What read queue length does an incoming req see
system.mem_ctrl.rdQLenPdf::19                       0                       # What read queue length does an incoming req see
system.mem_ctrl.rdQLenPdf::20                       0                       # What read queue length does an incoming req see
system.mem_ctrl.rdQLenPdf::21                       0                       # What read queue length does an incoming req see
system.mem_ctrl.rdQLenPdf::22                       0                       # What read queue length does an incoming req see
system.mem_ctrl.rdQLenPdf::23                       0                       # What read queue length does an incoming req see
system.mem_ctrl.rdQLenPdf::24                       0                       # What read queue length does an incoming req see
system.mem_ctrl.rdQLenPdf::25                       0                       # What read queue length does an incoming req see
system.mem_ctrl.rdQLenPdf::26                       0                       # What read queue length does an incoming req see
system.mem_ctrl.rdQLenPdf::27                       0                       # What read queue length does an incoming req see
system.mem_ctrl.rdQLenPdf::28                       0                       # What read queue length does an incoming req see
system.mem_ctrl.rdQLenPdf::29                       0                       # What read queue length does an incoming req see
system.mem_ctrl.rdQLenPdf::30                       0                       # What read queue length does an incoming req see
system.mem_ctrl.rdQLenPdf::31                       0                       # What read queue length does an incoming req see
system.mem_ctrl.wrQLenPdf::0                        1                       # What write queue length does an incoming req see
system.mem_ctrl.wrQLenPdf::1                        1                       # What write queue length does an incoming req see
system.mem_ctrl.wrQLenPdf::2                        1                       # What write queue length does an incoming req see
system.mem_ctrl.wrQLenPdf::3                        1                       # What write queue length does an incoming req see
system.mem_ctrl.wrQLenPdf::4                        1                       # What write queue length does an incoming req see
system.mem_ctrl.wrQLenPdf::5                        1                       # What write queue length does an incoming req see
system.mem_ctrl.wrQLenPdf::6                        1                       # What write queue length does an incoming req see
system.mem_ctrl.wrQLenPdf::7                        1                       # What write queue length does an incoming req see
system.mem_ctrl.wrQLenPdf::8                        1                       # What write queue length does an incoming req see
system.mem_ctrl.wrQLenPdf::9                        1                       # What write queue length does an incoming req see
system.mem_ctrl.wrQLenPdf::10                       1                       # What write queue length does an incoming req see
system.mem_ctrl.wrQLenPdf::11                       1                       # What write queue length does an incoming req see
system.mem_ctrl.wrQLenPdf::12                       1                       # What write queue length does an incoming req see
system.mem_ctrl.wrQLenPdf::13                       1                       # What write queue length does an incoming req see
system.mem_ctrl.wrQLenPdf::14                       1                       # What write queue length does an incoming req see
system.mem_ctrl.wrQLenPdf::15                       1                       # What write queue length does an incoming req see
system.mem_ctrl.wrQLenPdf::16                       1                       # What write queue length does an incoming req see
system.mem_ctrl.wrQLenPdf::17                       1                       # What write queue length does an incoming req see
system.mem_ctrl.wrQLenPdf::18                       3                       # What write queue length does an incoming req see
system.mem_ctrl.wrQLenPdf::19                       3                       # What write queue length does an incoming req see
system.mem_ctrl.wrQLenPdf::20                       2                       # What write queue length does an incoming req see
system.mem_ctrl.wrQLenPdf::21                       2                       # What write queue length does an incoming req see
system.mem_ctrl.wrQLenPdf::22                       2                       # What write queue length does an incoming req see
system.mem_ctrl.wrQLenPdf::23                       2                       # What write queue length does an incoming req see
system.mem_ctrl.wrQLenPdf::24                       2                       # What write queue length does an incoming req see
system.mem_ctrl.wrQLenPdf::25                       2                       # What write queue length does an incoming req see
system.mem_ctrl.wrQLenPdf::26                       2                       # What write queue length does an incoming req see
system.mem_ctrl.wrQLenPdf::27                       2                       # What write queue length does an incoming req see
system.mem_ctrl.wrQLenPdf::28                       2                       # What write queue length does an incoming req see
system.mem_ctrl.wrQLenPdf::29                       2                       # What write queue length does an incoming req see
system.mem_ctrl.wrQLenPdf::30                       2                       # What write queue length does an incoming req see
system.mem_ctrl.wrQLenPdf::31                       2                       # What write queue length does an incoming req see
system.mem_ctrl.wrQLenPdf::32                       2                       # What write queue length does an incoming req see
system.mem_ctrl.wrQLenPdf::33                       2                       # What write queue length does an incoming req see
system.mem_ctrl.wrQLenPdf::34                       0                       # What write queue length does an incoming req see
system.mem_ctrl.wrQLenPdf::35                       0                       # What write queue length does an incoming req see
system.mem_ctrl.wrQLenPdf::36                       0                       # What write queue length does an incoming req see
system.mem_ctrl.wrQLenPdf::37                       0                       # What write queue length does an incoming req see
system.mem_ctrl.wrQLenPdf::38                       0                       # What write queue length does an incoming req see
system.mem_ctrl.wrQLenPdf::39                       0                       # What write queue length does an incoming req see
system.mem_ctrl.wrQLenPdf::40                       0                       # What write queue length does an incoming req see
system.mem_ctrl.wrQLenPdf::41                       0                       # What write queue length does an incoming req see
system.mem_ctrl.wrQLenPdf::42                       0                       # What write queue length does an incoming req see
system.mem_ctrl.wrQLenPdf::43                       0                       # What write queue length does an incoming req see
system.mem_ctrl.wrQLenPdf::44                       0                       # What write queue length does an incoming req see
system.mem_ctrl.wrQLenPdf::45                       0                       # What write queue length does an incoming req see
system.mem_ctrl.wrQLenPdf::46                       0                       # What write queue length does an incoming req see
system.mem_ctrl.wrQLenPdf::47                       0                       # What write queue length does an incoming req see
system.mem_ctrl.wrQLenPdf::48                       0                       # What write queue length does an incoming req see
system.mem_ctrl.wrQLenPdf::49                       0                       # What write queue length does an incoming req see
system.mem_ctrl.wrQLenPdf::50                       0                       # What write queue length does an incoming req see
system.mem_ctrl.wrQLenPdf::51                       0                       # What write queue length does an incoming req see
system.mem_ctrl.wrQLenPdf::52                       0                       # What write queue length does an incoming req see
system.mem_ctrl.wrQLenPdf::53                       0                       # What write queue length does an incoming req see
system.mem_ctrl.wrQLenPdf::54                       0                       # What write queue length does an incoming req see
system.mem_ctrl.wrQLenPdf::55                       0                       # What write queue length does an incoming req see
system.mem_ctrl.wrQLenPdf::56                       0                       # What write queue length does an incoming req see
system.mem_ctrl.wrQLenPdf::57                       0                       # What write queue length does an incoming req see
system.mem_ctrl.wrQLenPdf::58                       0                       # What write queue length does an incoming req see
system.mem_ctrl.wrQLenPdf::59                       0                       # What write queue length does an incoming req see
system.mem_ctrl.wrQLenPdf::60                       0                       # What write queue length does an incoming req see
system.mem_ctrl.wrQLenPdf::61                       0                       # What write queue length does an incoming req see
system.mem_ctrl.wrQLenPdf::62                       0                       # What write queue length does an incoming req see
system.mem_ctrl.wrQLenPdf::63                       0                       # What write queue length does an incoming req see
system.mem_ctrl.bytesPerActivate::samples         3122                       # Bytes accessed per row activation
system.mem_ctrl.bytesPerActivate::mean     331.602819                       # Bytes accessed per row activation
system.mem_ctrl.bytesPerActivate::gmean    300.098685                       # Bytes accessed per row activation
system.mem_ctrl.bytesPerActivate::stdev    137.640840                       # Bytes accessed per row activation
system.mem_ctrl.bytesPerActivate::64-127           74      2.37%      2.37% # Bytes accessed per row activation
system.mem_ctrl.bytesPerActivate::128-191           42      1.35%      3.72% # Bytes accessed per row activation
system.mem_ctrl.bytesPerActivate::192-255          996     31.90%     35.62% # Bytes accessed per row activation
system.mem_ctrl.bytesPerActivate::256-319           19      0.61%     36.23% # Bytes accessed per row activation
system.mem_ctrl.bytesPerActivate::320-383          985     31.55%     67.78% # Bytes accessed per row activation
system.mem_ctrl.bytesPerActivate::384-447            7      0.22%     68.00% # Bytes accessed per row activation
system.mem_ctrl.bytesPerActivate::448-511            5      0.16%     68.16% # Bytes accessed per row activation
system.mem_ctrl.bytesPerActivate::512-575          994     31.84%    100.00% # Bytes accessed per row activation
system.mem_ctrl.bytesPerActivate::total          3122                       # Bytes accessed per row activation
system.mem_ctrl.rdPerTurnAround::samples            2                       # Reads before turning the bus around for writes
system.mem_ctrl.rdPerTurnAround::mean           16174                       # Reads before turning the bus around for writes
system.mem_ctrl.rdPerTurnAround::gmean    1136.802533                       # Reads before turning the bus around for writes
system.mem_ctrl.rdPerTurnAround::stdev   22816.921615                       # Reads before turning the bus around for writes
system.mem_ctrl.rdPerTurnAround::0-1023             1     50.00%     50.00% # Reads before turning the bus around for writes
system.mem_ctrl.rdPerTurnAround::31744-32767            1     50.00%    100.00% # Reads before turning the bus around for writes
system.mem_ctrl.rdPerTurnAround::total              2                       # Reads before turning the bus around for writes
system.mem_ctrl.wrPerTurnAround::samples            2                       # Writes before turning the bus around for reads
system.mem_ctrl.wrPerTurnAround::mean              16                       # Writes before turning the bus around for reads
system.mem_ctrl.wrPerTurnAround::gmean      16.000000                       # Writes before turning the bus around for reads
system.mem_ctrl.wrPerTurnAround::16                 2    100.00%    100.00% # Writes before turning the bus around for reads
system.mem_ctrl.wrPerTurnAround::total              2                       # Writes before turning the bus around for reads
system.mem_ctrl.bytesReadDRAM                 1035200                       # Total number of bytes read from DRAM
system.mem_ctrl.bytesReadWrQ                      128                       # Total number of bytes read from write queue
system.mem_ctrl.bytesWritten                     1024                       # Total number of bytes written to DRAM
system.mem_ctrl.bytesReadSys                  1035328                       # Total read bytes from the system interface side
system.mem_ctrl.bytesWrittenSys                  1664                       # Total written bytes from the system interface side
system.mem_ctrl.avgRdBW                         28.65                       # Average DRAM read bandwidth in MiByte/s
system.mem_ctrl.avgWrBW                          0.03                       # Average achieved write bandwidth in MiByte/s
system.mem_ctrl.avgRdBWSys                      28.65                       # Average system read bandwidth in MiByte/s
system.mem_ctrl.avgWrBWSys                       0.05                       # Average system write bandwidth in MiByte/s
system.mem_ctrl.peakBW                        8000.00                       # Theoretical peak bandwidth in MiByte/s
system.mem_ctrl.busUtil                          0.36                       # Data bus utilization in percentage
system.mem_ctrl.busUtilRead                      0.36                       # Data bus utilization in percentage for reads
system.mem_ctrl.busUtilWrite                     0.00                       # Data bus utilization in percentage for writes
system.mem_ctrl.totGap                    36135872000                       # Total gap between requests
system.mem_ctrl.avgGap                     2230196.38                       # Average gap between requests
system.mem_ctrl.masterReadBytes::.cpu.inst        24576                       # Per-master bytes read from memory
system.mem_ctrl.masterReadBytes::.cpu.data      1010624                       # Per-master bytes read from memory
system.mem_ctrl.masterWriteBytes::.writebacks         1024                       # Per-master bytes write to memory
system.mem_ctrl.masterReadRate::.cpu.inst 680099.084813442198                       # Per-master bytes read from memory rate (Bytes/sec)
system.mem_ctrl.masterReadRate::.cpu.data 27967303.771586108953                       # Per-master bytes read from memory rate (Bytes/sec)
system.mem_ctrl.masterWriteRate::.writebacks 28337.461867226761                       # Per-master bytes write to memory rate (Bytes/sec)
system.mem_ctrl.masterReadAccesses::.cpu.inst          768                       # Per-master read serviced memory accesses
system.mem_ctrl.masterReadAccesses::.cpu.data        31586                       # Per-master read serviced memory accesses
system.mem_ctrl.masterWriteAccesses::.writebacks           52                       # Per-master write serviced memory accesses
system.mem_ctrl.masterReadTotalLat::.cpu.inst     25066000                       # Per-master read total memory access latency
system.mem_ctrl.masterReadTotalLat::.cpu.data    907553000                       # Per-master read total memory access latency
system.mem_ctrl.masterWriteTotalLat::.writebacks  14602918000                       # Per-master write total memory access latency
system.mem_ctrl.masterReadAvgLat::.cpu.inst     32638.02                       # Per-master read average memory access latency
system.mem_ctrl.masterReadAvgLat::.cpu.data     28732.76                       # Per-master read average memory access latency
system.mem_ctrl.masterWriteAvgLat::.writebacks 280825346.15                       # Per-master write average memory access latency
system.mem_ctrl.pageHitRate                     90.28                       # Row buffer hit rate, read and write combined
system.mem_ctrl.rank0.actEnergy                     0                       # Energy for activate commands per rank (pJ)
system.mem_ctrl.rank0.preEnergy                     0                       # Energy for precharge commands per rank (pJ)
system.mem_ctrl.rank0.readEnergy                    0                       # Energy for read commands per rank (pJ)
system.mem_ctrl.rank0.writeEnergy                   0                       # Energy for write commands per rank (pJ)
system.mem_ctrl.rank0.refreshEnergy                 0                       # Energy for refresh commands per rank (pJ)
system.mem_ctrl.rank0.actBackEnergy                 0                       # Energy for active background per rank (pJ)
system.mem_ctrl.rank0.preBackEnergy                 0                       # Energy for precharge background per rank (pJ)
system.mem_ctrl.rank0.actPowerDownEnergy            0                       # Energy for active power-down per rank (pJ)
system.mem_ctrl.rank0.prePowerDownEnergy            0                       # Energy for precharge power-down per rank (pJ)
system.mem_ctrl.rank0.selfRefreshEnergy             0                       # Energy for self refresh per rank (pJ)
system.mem_ctrl.rank0.totalEnergy                   0                       # Total energy per rank (pJ)
system.mem_ctrl.rank0.averagePower                  0                       # Core power per rank (mW)
system.mem_ctrl.rank0.totalIdleTime                 0                       # Total Idle time Per DRAM Rank
system.mem_ctrl.rank0.memoryStateTime::IDLE  26792884500                       # Time in different power states
system.mem_ctrl.rank0.memoryStateTime::REF   2418260000                       # Time in different power states
system.mem_ctrl.rank0.memoryStateTime::SREF            0                       # Time in different power states
system.mem_ctrl.rank0.memoryStateTime::PRE_PDN            0                       # Time in different power states
system.mem_ctrl.rank0.memoryStateTime::ACT   6924766500                       # Time in different power states
system.mem_ctrl.rank0.memoryStateTime::ACT_PDN            0                       # Time in different power states

---------- End Simulation Statistics   ----------
