
---------- Begin Simulation Statistics ----------
final_tick                                10882714000                       # Number of ticks from beginning of simulation (restored from checkpoints and never reset)
host_inst_rate                                 258885                       # Simulator instruction rate (inst/s)
host_mem_usage                                 794712                       # Number of bytes of host memory used
host_op_rate                                   420845                       # Simulator op (including micro ops) rate (op/s)
host_seconds                                    90.27                       # Real time elapsed on the host
host_tick_rate                              120552831                       # Simulator tick rate (ticks/s)
sim_freq                                 1000000000000                       # Frequency of simulated ticks
sim_insts                                    23370424                       # Number of instructions simulated
sim_ops                                      37991106                       # Number of ops (including micro ops) simulated
sim_seconds                                  0.010883                       # Number of seconds simulated
sim_ticks                                 10882714000                       # Number of ticks simulated
system.cpu.branchPred.BTBCorrect                    0                       # Number of correct BTB predictions (this stat may not work properly.
system.cpu.branchPred.BTBHitPct              0.000000                       # BTB Hit Percentage
system.cpu.branchPred.BTBHits                       0                       # Number of BTB hits
system.cpu.branchPred.BTBLookups              2101435                       # Number of BTB lookups
system.cpu.branchPred.RASInCorrect                  1                       # Number of incorrect RAS predictions.
system.cpu.branchPred.condIncorrect               824                       # Number of conditional branches incorrect
system.cpu.branchPred.condPredicted           2429138                       # Number of conditional branches predicted
system.cpu.branchPred.indirectHits            2098834                       # Number of indirect target hits.
system.cpu.branchPred.indirectLookups         2101435                       # Number of indirect predictor lookups.
system.cpu.branchPred.indirectMisses             2601                       # Number of indirect misses.
system.cpu.branchPred.lookups                 2429864                       # Number of BP lookups
system.cpu.branchPred.usedRAS                     288                       # Number of times the RAS was used to get a target.
system.cpu.branchPredindirectMispredicted          462                       # Number of mispredicted indirect branches.
system.cpu.cc_regfile_reads                  11969181                       # number of cc regfile reads
system.cpu.cc_regfile_writes                 10165413                       # number of cc regfile writes
system.cpu.commit.amos                              0                       # Number of atomic instructions committed
system.cpu.commit.branchMispredicts               836                       # The number of times a branch was mispredicted
system.cpu.commit.branches                    2426319                       # Number of branches committed
system.cpu.commit.bw_lim_events               2718077                       # number cycles where commit BW limit reached
system.cpu.commit.commitNonSpecStalls               8                       # The number of times commit has been forced to stall to communicate backwards
system.cpu.commit.commitSquashedInsts           17922                       # The number of squashed insts skipped by commit
system.cpu.commit.committedInsts             23370424                       # Number of instructions committed
system.cpu.commit.committedOps               37991106                       # Number of ops (including micro ops) committed
system.cpu.commit.committed_per_cycle::samples     10867253                       # Number of insts commited each cycle
system.cpu.commit.committed_per_cycle::mean     3.495925                       # Number of insts commited each cycle
system.cpu.commit.committed_per_cycle::stdev     3.306327                       # Number of insts commited each cycle
system.cpu.commit.committed_per_cycle::underflows            0      0.00%      0.00% # Number of insts commited each cycle
system.cpu.commit.committed_per_cycle::0      2175473     20.02%     20.02% # Number of insts commited each cycle
system.cpu.commit.committed_per_cycle::1      3902119     35.91%     55.93% # Number of insts commited each cycle
system.cpu.commit.committed_per_cycle::2         2663      0.02%     55.95% # Number of insts commited each cycle
system.cpu.commit.committed_per_cycle::3         2600      0.02%     55.97% # Number of insts commited each cycle
system.cpu.commit.committed_per_cycle::4        32660      0.30%     56.27% # Number of insts commited each cycle
system.cpu.commit.committed_per_cycle::5         1461      0.01%     56.29% # Number of insts commited each cycle
system.cpu.commit.committed_per_cycle::6      2032100     18.70%     74.99% # Number of insts commited each cycle
system.cpu.commit.committed_per_cycle::7          100      0.00%     74.99% # Number of insts commited each cycle
system.cpu.commit.committed_per_cycle::8      2718077     25.01%    100.00% # Number of insts commited each cycle
system.cpu.commit.committed_per_cycle::overflows            0      0.00%    100.00% # Number of insts commited each cycle
system.cpu.commit.committed_per_cycle::min_value            0                       # Number of insts commited each cycle
system.cpu.commit.committed_per_cycle::max_value            8                       # Number of insts commited each cycle
system.cpu.commit.committed_per_cycle::total     10867253                       # Number of insts commited each cycle
system.cpu.commit.fp_insts                   15466784                       # Number of committed floating point instructions.
system.cpu.commit.function_calls                   88                       # Number of function calls committed.
system.cpu.commit.int_insts                  29078077                       # Number of committed integer instructions.
system.cpu.commit.loads                       4457218                       # Number of loads committed
system.cpu.commit.membars                           0                       # Number of memory barriers committed
system.cpu.commit.op_class_0::No_OpClass           39      0.00%      0.00% # Class of committed instruction
system.cpu.commit.op_class_0::IntAlu         26716951     70.32%     70.32% # Class of committed instruction
system.cpu.commit.op_class_0::IntMult               5      0.00%     70.32% # Class of committed instruction
system.cpu.commit.op_class_0::IntDiv               21      0.00%     70.32% # Class of committed instruction
system.cpu.commit.op_class_0::FloatAdd         524290      1.38%     71.70% # Class of committed instruction
system.cpu.commit.op_class_0::FloatCmp              0      0.00%     71.70% # Class of committed instruction
system.cpu.commit.op_class_0::FloatCvt              0      0.00%     71.70% # Class of committed instruction
system.cpu.commit.op_class_0::FloatMult             0      0.00%     71.70% # Class of committed instruction
system.cpu.commit.op_class_0::FloatMultAcc            0      0.00%     71.70% # Class of committed instruction
system.cpu.commit.op_class_0::FloatDiv              0      0.00%     71.70% # Class of committed instruction
system.cpu.commit.op_class_0::FloatMisc             0      0.00%     71.70% # Class of committed instruction
system.cpu.commit.op_class_0::FloatSqrt             0      0.00%     71.70% # Class of committed instruction
system.cpu.commit.op_class_0::SimdAdd               0      0.00%     71.70% # Class of committed instruction
system.cpu.commit.op_class_0::SimdAddAcc            0      0.00%     71.70% # Class of committed instruction
system.cpu.commit.op_class_0::SimdAlu              34      0.00%     71.70% # Class of committed instruction
system.cpu.commit.op_class_0::SimdCmp               0      0.00%     71.70% # Class of committed instruction
system.cpu.commit.op_class_0::SimdCvt              28      0.00%     71.70% # Class of committed instruction
system.cpu.commit.op_class_0::SimdMisc             42      0.00%     71.70% # Class of committed instruction
system.cpu.commit.op_class_0::SimdMult              0      0.00%     71.70% # Class of committed instruction
system.cpu.commit.op_class_0::SimdMultAcc            0      0.00%     71.70% # Class of committed instruction
system.cpu.commit.op_class_0::SimdShift             0      0.00%     71.70% # Class of committed instruction
system.cpu.commit.op_class_0::SimdShiftAcc            0      0.00%     71.70% # Class of committed instruction
system.cpu.commit.op_class_0::SimdDiv               0      0.00%     71.70% # Class of committed instruction
system.cpu.commit.op_class_0::SimdSqrt              0      0.00%     71.70% # Class of committed instruction
system.cpu.commit.op_class_0::SimdFloatAdd      2097152      5.52%     77.22% # Class of committed instruction
system.cpu.commit.op_class_0::SimdFloatAlu            0      0.00%     77.22% # Class of committed instruction
system.cpu.commit.op_class_0::SimdFloatCmp            0      0.00%     77.22% # Class of committed instruction
system.cpu.commit.op_class_0::SimdFloatCvt            0      0.00%     77.22% # Class of committed instruction
system.cpu.commit.op_class_0::SimdFloatDiv            0      0.00%     77.22% # Class of committed instruction
system.cpu.commit.op_class_0::SimdFloatMisc            0      0.00%     77.22% # Class of committed instruction
system.cpu.commit.op_class_0::SimdFloatMult      2097152      5.52%     82.74% # Class of committed instruction
system.cpu.commit.op_class_0::SimdFloatMultAcc            0      0.00%     82.74% # Class of committed instruction
system.cpu.commit.op_class_0::SimdFloatSqrt            0      0.00%     82.74% # Class of committed instruction
system.cpu.commit.op_class_0::SimdReduceAdd            0      0.00%     82.74% # Class of committed instruction
system.cpu.commit.op_class_0::SimdReduceAlu            0      0.00%     82.74% # Class of committed instruction
system.cpu.commit.op_class_0::SimdReduceCmp            0      0.00%     82.74% # Class of committed instruction
system.cpu.commit.op_class_0::SimdFloatReduceAdd            0      0.00%     82.74% # Class of committed instruction
system.cpu.commit.op_class_0::SimdFloatReduceCmp            0      0.00%     82.74% # Class of committed instruction
system.cpu.commit.op_class_0::SimdAes               0      0.00%     82.74% # Class of committed instruction
system.cpu.commit.op_class_0::SimdAesMix            0      0.00%     82.74% # Class of committed instruction
system.cpu.commit.op_class_0::SimdSha1Hash            0      0.00%     82.74% # Class of committed instruction
system.cpu.commit.op_class_0::SimdSha1Hash2            0      0.00%     82.74% # Class of committed instruction
system.cpu.commit.op_class_0::SimdSha256Hash            0      0.00%     82.74% # Class of committed instruction
system.cpu.commit.op_class_0::SimdSha256Hash2            0      0.00%     82.74% # Class of committed instruction
system.cpu.commit.op_class_0::SimdShaSigma2            0      0.00%     82.74% # Class of committed instruction
system.cpu.commit.op_class_0::SimdShaSigma3            0      0.00%     82.74% # Class of committed instruction
system.cpu.commit.op_class_0::SimdPredAlu            0      0.00%     82.74% # Class of committed instruction
system.cpu.commit.op_class_0::MemRead             746      0.00%     82.75% # Class of committed instruction
system.cpu.commit.op_class_0::MemWrite            870      0.00%     82.75% # Class of committed instruction
system.cpu.commit.op_class_0::FloatMemRead      4456472     11.73%     94.48% # Class of committed instruction
system.cpu.commit.op_class_0::FloatMemWrite      2097304      5.52%    100.00% # Class of committed instruction
system.cpu.commit.op_class_0::IprAccess             0      0.00%    100.00% # Class of committed instruction
system.cpu.commit.op_class_0::InstPrefetch            0      0.00%    100.00% # Class of committed instruction
system.cpu.commit.op_class_0::total          37991106                       # Class of committed instruction
system.cpu.commit.refs                        6555392                       # Number of memory references committed
system.cpu.commit.swp_count                         0                       # Number of s/w prefetches committed
system.cpu.commit.vec_insts                         0                       # Number of committed Vector instructions.
system.cpu.committedInsts                    23370424                       # Number of Instructions Simulated
system.cpu.committedOps                      37991106                       # Number of Ops (including micro ops) Simulated
system.cpu.cpi                               0.465662                       # CPI: Cycles Per Instruction
system.cpu.cpi_total                         0.465662                       # CPI: Total CPI of All Threads
system.cpu.decode.BlockedCycles               4650456                       # Number of cycles decode is blocked
system.cpu.decode.DecodedInsts               38019550                       # Number of instructions handled by decode
system.cpu.decode.IdleCycles                  1465511                       # Number of cycles decode is idle
system.cpu.decode.RunCycles                   1512821                       # Number of cycles decode is running
system.cpu.decode.SquashCycles                    860                       # Number of cycles decode is squashing
system.cpu.decode.UnblockCycles               3240452                       # Number of cycles decode is unblocking
system.cpu.dtb.rdAccesses                     4720156                       # TLB accesses on read requests
system.cpu.dtb.rdMisses                           101                       # TLB misses on read requests
system.cpu.dtb.wrAccesses                     2098771                       # TLB accesses on write requests
system.cpu.dtb.wrMisses                             9                       # TLB misses on write requests
system.cpu.fetch.Branches                     2429864                       # Number of branches that fetch encountered
system.cpu.fetch.CacheLines                    559775                       # Number of cache lines fetched
system.cpu.fetch.Cycles                      10300519                       # Number of cycles fetch has run and was not squashing or blocked
system.cpu.fetch.IcacheSquashes                   287                       # Number of outstanding Icache misses that were squashed
system.cpu.fetch.IcacheWaitRetryStallCycles            1                       # Number of stall cycles due to full MSHR
system.cpu.fetch.Insts                       23393489                       # Number of instructions fetch has processed
system.cpu.fetch.MiscStallCycles                   56                       # Number of cycles fetch has spent waiting on interrupts, or bad addresses, or out of MSHRs
system.cpu.fetch.PendingQuiesceStallCycles            7                       # Number of stall cycles due to pending quiesce instructions
system.cpu.fetch.PendingTrapStallCycles            79                       # Number of stall cycles due to pending traps
system.cpu.fetch.SquashCycles                    1720                       # Number of cycles fetch has spent squashing
system.cpu.fetch.branchRate                  0.223277                       # Number of branch fetches per cycle
system.cpu.fetch.icacheStallCycles             568578                       # Number of cycles fetch is stalled on an Icache miss
system.cpu.fetch.predictedBranches            2099122                       # Number of branches that fetch has predicted taken
system.cpu.fetch.rate                        2.149600                       # Number of inst fetches per cycle
system.cpu.fetch.rateDist::samples           10870100                       # Number of instructions fetched each cycle (Total)
system.cpu.fetch.rateDist::mean              3.498774                       # Number of instructions fetched each cycle (Total)
system.cpu.fetch.rateDist::stdev             3.513504                       # Number of instructions fetched each cycle (Total)
system.cpu.fetch.rateDist::underflows               0      0.00%      0.00% # Number of instructions fetched each cycle (Total)
system.cpu.fetch.rateDist::0                  4596953     42.29%     42.29% # Number of instructions fetched each cycle (Total)
system.cpu.fetch.rateDist::1                   422085      3.88%     46.17% # Number of instructions fetched each cycle (Total)
system.cpu.fetch.rateDist::2                   406951      3.74%     49.92% # Number of instructions fetched each cycle (Total)
system.cpu.fetch.rateDist::3                   431688      3.97%     53.89% # Number of instructions fetched each cycle (Total)
system.cpu.fetch.rateDist::4                   439548      4.04%     57.93% # Number of instructions fetched each cycle (Total)
system.cpu.fetch.rateDist::5                   579236      5.33%     63.26% # Number of instructions fetched each cycle (Total)
system.cpu.fetch.rateDist::6                   374849      3.45%     66.71% # Number of instructions fetched each cycle (Total)
system.cpu.fetch.rateDist::7                   352817      3.25%     69.95% # Number of instructions fetched each cycle (Total)
system.cpu.fetch.rateDist::8                  3265973     30.05%    100.00% # Number of instructions fetched each cycle (Total)
system.cpu.fetch.rateDist::overflows                0      0.00%    100.00% # Number of instructions fetched each cycle (Total)
system.cpu.fetch.rateDist::min_value                0                       # Number of instructions fetched each cycle (Total)
system.cpu.fetch.rateDist::max_value                8                       # Number of instructions fetched each cycle (Total)
system.cpu.fetch.rateDist::total             10870100                       # Number of instructions fetched each cycle (Total)
system.cpu.fp_regfile_reads                  23069264                       # number of floating regfile reads
system.cpu.fp_regfile_writes                 13369657                       # number of floating regfile writes
system.cpu.idleCycles                           12615                       # Total number of cycles that the CPU has spent unscheduled due to idling
system.cpu.iew.branchMispredicts                 1050                       # Number of branch mispredicts detected at execute
system.cpu.iew.exec_branches                  2427168                       # Number of branches executed
system.cpu.iew.exec_nop                             0                       # number of nop insts executed
system.cpu.iew.exec_rate                     3.491987                       # Inst execution rate
system.cpu.iew.exec_refs                      6556771                       # number of memory reference insts executed
system.cpu.iew.exec_stores                    2098770                       # Number of stores executed
system.cpu.iew.exec_swp                             0                       # number of swp insts executed
system.cpu.iew.iewBlockCycles                    5324                       # Number of cycles IEW is blocking
system.cpu.iew.iewDispLoadInsts               4458902                       # Number of dispatched load instructions
system.cpu.iew.iewDispNonSpecInsts                 30                       # Number of dispatched non-speculative instructions
system.cpu.iew.iewDispSquashedInsts                97                       # Number of squashed instructions skipped by dispatch
system.cpu.iew.iewDispStoreInsts              2099327                       # Number of dispatched store instructions
system.cpu.iew.iewDispatchedInsts            38009013                       # Number of instructions dispatched to IQ
system.cpu.iew.iewExecLoadInsts               4458001                       # Number of load instructions executed
system.cpu.iew.iewExecSquashedInsts              2097                       # Number of squashed instructions skipped in execute
system.cpu.iew.iewExecutedInsts              38002296                       # Number of executed instructions
system.cpu.iew.iewIQFullEvents                     57                       # Number of times the IQ has become full, causing a stall
system.cpu.iew.iewIdleCycles                        0                       # Number of cycles IEW is idle
system.cpu.iew.iewLSQFullEvents                  1910                       # Number of times the LSQ has become full, causing a stall
system.cpu.iew.iewSquashCycles                    860                       # Number of cycles IEW is squashing
system.cpu.iew.iewUnblockCycles                  2033                       # Number of cycles IEW is unblocking
system.cpu.iew.lsq.thread0.blockedLoads             0                       # Number of blocked loads due to partial load-store forwarding
system.cpu.iew.lsq.thread0.cacheBlocked             9                       # Number of times an access to memory failed due to the cache being blocked
system.cpu.iew.lsq.thread0.forwLoads               56                       # Number of loads that had data forwarded from stores
system.cpu.iew.lsq.thread0.ignoredResponses            1                       # Number of memory responses ignored because the instruction is squashed
system.cpu.iew.lsq.thread0.invAddrLoads             0                       # Number of loads ignored due to an invalid address
system.cpu.iew.lsq.thread0.invAddrSwpfs             0                       # Number of software prefetches ignored due to an invalid address
system.cpu.iew.lsq.thread0.memOrderViolation           23                       # Number of memory ordering violations
system.cpu.iew.lsq.thread0.rescheduledLoads           12                       # Number of loads that were rescheduled
system.cpu.iew.lsq.thread0.squashedLoads         1684                       # Number of loads squashed
system.cpu.iew.lsq.thread0.squashedStores         1153                       # Number of stores squashed
system.cpu.iew.memOrderViolationEvents             23                       # Number of memory order violations
system.cpu.iew.predictedNotTakenIncorrect         1030                       # Number of branches that were predicted not taken incorrectly
system.cpu.iew.predictedTakenIncorrect             20                       # Number of branches that were predicted taken incorrectly
system.cpu.iew.wb_consumers                  42598544                       # num instructions consuming a value
system.cpu.iew.wb_count                      38001867                       # cumulative count of insts written-back
system.cpu.iew.wb_fanout                     0.676900                       # average fanout of values written-back
system.cpu.iew.wb_producers                  28834970                       # num instructions producing a value
system.cpu.iew.wb_rate                       3.491947                       # insts written-back per cycle
system.cpu.iew.wb_sent                       38002044                       # cumulative count of insts sent to commit
system.cpu.int_regfile_reads                 40762652                       # number of integer regfile reads
system.cpu.int_regfile_writes                20106210                       # number of integer regfile writes
system.cpu.ipc                               2.147481                       # IPC: Instructions Per Cycle
system.cpu.ipc_total                         2.147481                       # IPC: Total IPC of All Threads
system.cpu.iq.FU_type_0::No_OpClass               270      0.00%      0.00% # Type of FU issued
system.cpu.iq.FU_type_0::IntAlu              26727503     70.33%     70.33% # Type of FU issued
system.cpu.iq.FU_type_0::IntMult                    5      0.00%     70.33% # Type of FU issued
system.cpu.iq.FU_type_0::IntDiv                    22      0.00%     70.33% # Type of FU issued
system.cpu.iq.FU_type_0::FloatAdd              524844      1.38%     71.71% # Type of FU issued
system.cpu.iq.FU_type_0::FloatCmp                   0      0.00%     71.71% # Type of FU issued
system.cpu.iq.FU_type_0::FloatCvt                   0      0.00%     71.71% # Type of FU issued
system.cpu.iq.FU_type_0::FloatMult                  0      0.00%     71.71% # Type of FU issued
system.cpu.iq.FU_type_0::FloatMultAcc               0      0.00%     71.71% # Type of FU issued
system.cpu.iq.FU_type_0::FloatDiv                   0      0.00%     71.71% # Type of FU issued
system.cpu.iq.FU_type_0::FloatMisc                  0      0.00%     71.71% # Type of FU issued
system.cpu.iq.FU_type_0::FloatSqrt                  0      0.00%     71.71% # Type of FU issued
system.cpu.iq.FU_type_0::SimdAdd                    0      0.00%     71.71% # Type of FU issued
system.cpu.iq.FU_type_0::SimdAddAcc                 0      0.00%     71.71% # Type of FU issued
system.cpu.iq.FU_type_0::SimdAlu                   58      0.00%     71.71% # Type of FU issued
system.cpu.iq.FU_type_0::SimdCmp                    0      0.00%     71.71% # Type of FU issued
system.cpu.iq.FU_type_0::SimdCvt                   42      0.00%     71.71% # Type of FU issued
system.cpu.iq.FU_type_0::SimdMisc                  52      0.00%     71.71% # Type of FU issued
system.cpu.iq.FU_type_0::SimdMult                   0      0.00%     71.71% # Type of FU issued
system.cpu.iq.FU_type_0::SimdMultAcc                0      0.00%     71.71% # Type of FU issued
system.cpu.iq.FU_type_0::SimdShift                  0      0.00%     71.71% # Type of FU issued
system.cpu.iq.FU_type_0::SimdShiftAcc               0      0.00%     71.71% # Type of FU issued
system.cpu.iq.FU_type_0::SimdDiv                    0      0.00%     71.71% # Type of FU issued
system.cpu.iq.FU_type_0::SimdSqrt                   0      0.00%     71.71% # Type of FU issued
system.cpu.iq.FU_type_0::SimdFloatAdd         2097153      5.52%     77.23% # Type of FU issued
system.cpu.iq.FU_type_0::SimdFloatAlu               0      0.00%     77.23% # Type of FU issued
system.cpu.iq.FU_type_0::SimdFloatCmp               0      0.00%     77.23% # Type of FU issued
system.cpu.iq.FU_type_0::SimdFloatCvt               0      0.00%     77.23% # Type of FU issued
system.cpu.iq.FU_type_0::SimdFloatDiv               0      0.00%     77.23% # Type of FU issued
system.cpu.iq.FU_type_0::SimdFloatMisc              0      0.00%     77.23% # Type of FU issued
system.cpu.iq.FU_type_0::SimdFloatMult        2097152      5.52%     82.75% # Type of FU issued
system.cpu.iq.FU_type_0::SimdFloatMultAcc            0      0.00%     82.75% # Type of FU issued
system.cpu.iq.FU_type_0::SimdFloatSqrt              0      0.00%     82.75% # Type of FU issued
system.cpu.iq.FU_type_0::SimdReduceAdd              0      0.00%     82.75% # Type of FU issued
system.cpu.iq.FU_type_0::SimdReduceAlu              0      0.00%     82.75% # Type of FU issued
system.cpu.iq.FU_type_0::SimdReduceCmp              0      0.00%     82.75% # Type of FU issued
system.cpu.iq.FU_type_0::SimdFloatReduceAdd            0      0.00%     82.75% # Type of FU issued
system.cpu.iq.FU_type_0::SimdFloatReduceCmp            0      0.00%     82.75% # Type of FU issued
system.cpu.iq.FU_type_0::SimdAes                    0      0.00%     82.75% # Type of FU issued
system.cpu.iq.FU_type_0::SimdAesMix                 0      0.00%     82.75% # Type of FU issued
system.cpu.iq.FU_type_0::SimdSha1Hash               0      0.00%     82.75% # Type of FU issued
system.cpu.iq.FU_type_0::SimdSha1Hash2              0      0.00%     82.75% # Type of FU issued
system.cpu.iq.FU_type_0::SimdSha256Hash             0      0.00%     82.75% # Type of FU issued
system.cpu.iq.FU_type_0::SimdSha256Hash2            0      0.00%     82.75% # Type of FU issued
system.cpu.iq.FU_type_0::SimdShaSigma2              0      0.00%     82.75% # Type of FU issued
system.cpu.iq.FU_type_0::SimdShaSigma3              0      0.00%     82.75% # Type of FU issued
system.cpu.iq.FU_type_0::SimdPredAlu                0      0.00%     82.75% # Type of FU issued
system.cpu.iq.FU_type_0::MemRead                 1566      0.00%     82.75% # Type of FU issued
system.cpu.iq.FU_type_0::MemWrite                1576      0.00%     82.75% # Type of FU issued
system.cpu.iq.FU_type_0::FloatMemRead         4456845     11.73%     94.48% # Type of FU issued
system.cpu.iq.FU_type_0::FloatMemWrite        2097305      5.52%    100.00% # Type of FU issued
system.cpu.iq.FU_type_0::IprAccess                  0      0.00%    100.00% # Type of FU issued
system.cpu.iq.FU_type_0::InstPrefetch               0      0.00%    100.00% # Type of FU issued
system.cpu.iq.FU_type_0::total               38004393                       # Type of FU issued
system.cpu.iq.fp_alu_accesses                15467851                       # Number of floating point alu accesses
system.cpu.iq.fp_inst_queue_reads            30935679                       # Number of floating instruction queue reads
system.cpu.iq.fp_inst_queue_wakeup_accesses     15466999                       # Number of floating instruction queue wakeup accesses
system.cpu.iq.fp_inst_queue_writes           15469742                       # Number of floating instruction queue writes
system.cpu.iq.fu_busy_cnt                       61293                       # FU busy when requested
system.cpu.iq.fu_busy_rate                   0.001613                       # FU busy rate (busy events/executed inst)
system.cpu.iq.fu_full::No_OpClass                   0      0.00%      0.00% # attempts to use FU when none available
system.cpu.iq.fu_full::IntAlu                   61243     99.92%     99.92% # attempts to use FU when none available
system.cpu.iq.fu_full::IntMult                      0      0.00%     99.92% # attempts to use FU when none available
system.cpu.iq.fu_full::IntDiv                       0      0.00%     99.92% # attempts to use FU when none available
system.cpu.iq.fu_full::FloatAdd                     0      0.00%     99.92% # attempts to use FU when none available
system.cpu.iq.fu_full::FloatCmp                     0      0.00%     99.92% # attempts to use FU when none available
system.cpu.iq.fu_full::FloatCvt                     0      0.00%     99.92% # attempts to use FU when none available
system.cpu.iq.fu_full::FloatMult                    0      0.00%     99.92% # attempts to use FU when none available
system.cpu.iq.fu_full::FloatMultAcc                 0      0.00%     99.92% # attempts to use FU when none available
system.cpu.iq.fu_full::FloatDiv                     0      0.00%     99.92% # attempts to use FU when none available
system.cpu.iq.fu_full::FloatMisc                    0      0.00%     99.92% # attempts to use FU when none available
system.cpu.iq.fu_full::FloatSqrt                    0      0.00%     99.92% # attempts to use FU when none available
system.cpu.iq.fu_full::SimdAdd                      0      0.00%     99.92% # attempts to use FU when none available
system.cpu.iq.fu_full::SimdAddAcc                   0      0.00%     99.92% # attempts to use FU when none available
system.cpu.iq.fu_full::SimdAlu                      4      0.01%     99.92% # attempts to use FU when none available
system.cpu.iq.fu_full::SimdCmp                      0      0.00%     99.92% # attempts to use FU when none available
system.cpu.iq.fu_full::SimdCvt                      2      0.00%     99.93% # attempts to use FU when none available
system.cpu.iq.fu_full::SimdMisc                     0      0.00%     99.93% # attempts to use FU when none available
system.cpu.iq.fu_full::SimdMult                     0      0.00%     99.93% # attempts to use FU when none available
system.cpu.iq.fu_full::SimdMultAcc                  0      0.00%     99.93% # attempts to use FU when none available
system.cpu.iq.fu_full::SimdShift                    0      0.00%     99.93% # attempts to use FU when none available
system.cpu.iq.fu_full::SimdShiftAcc                 0      0.00%     99.93% # attempts to use FU when none available
system.cpu.iq.fu_full::SimdDiv                      0      0.00%     99.93% # attempts to use FU when none available
system.cpu.iq.fu_full::SimdSqrt                     0      0.00%     99.93% # attempts to use FU when none available
system.cpu.iq.fu_full::SimdFloatAdd                 0      0.00%     99.93% # attempts to use FU when none available
system.cpu.iq.fu_full::SimdFloatAlu                 0      0.00%     99.93% # attempts to use FU when none available
system.cpu.iq.fu_full::SimdFloatCmp                 0      0.00%     99.93% # attempts to use FU when none available
system.cpu.iq.fu_full::SimdFloatCvt                 0      0.00%     99.93% # attempts to use FU when none available
system.cpu.iq.fu_full::SimdFloatDiv                 0      0.00%     99.93% # attempts to use FU when none available
system.cpu.iq.fu_full::SimdFloatMisc                0      0.00%     99.93% # attempts to use FU when none available
system.cpu.iq.fu_full::SimdFloatMult                0      0.00%     99.93% # attempts to use FU when none available
system.cpu.iq.fu_full::SimdFloatMultAcc             0      0.00%     99.93% # attempts to use FU when none available
system.cpu.iq.fu_full::SimdFloatSqrt                0      0.00%     99.93% # attempts to use FU when none available
system.cpu.iq.fu_full::SimdReduceAdd                0      0.00%     99.93% # attempts to use FU when none available
system.cpu.iq.fu_full::SimdReduceAlu                0      0.00%     99.93% # attempts to use FU when none available
system.cpu.iq.fu_full::SimdReduceCmp                0      0.00%     99.93% # attempts to use FU when none available
system.cpu.iq.fu_full::SimdFloatReduceAdd            0      0.00%     99.93% # attempts to use FU when none available
system.cpu.iq.fu_full::SimdFloatReduceCmp            0      0.00%     99.93% # attempts to use FU when none available
system.cpu.iq.fu_full::SimdAes                      0      0.00%     99.93% # attempts to use FU when none available
system.cpu.iq.fu_full::SimdAesMix                   0      0.00%     99.93% # attempts to use FU when none available
system.cpu.iq.fu_full::SimdSha1Hash                 0      0.00%     99.93% # attempts to use FU when none available
system.cpu.iq.fu_full::SimdSha1Hash2                0      0.00%     99.93% # attempts to use FU when none available
system.cpu.iq.fu_full::SimdSha256Hash               0      0.00%     99.93% # attempts to use FU when none available
system.cpu.iq.fu_full::SimdSha256Hash2              0      0.00%     99.93% # attempts to use FU when none available
system.cpu.iq.fu_full::SimdShaSigma2                0      0.00%     99.93% # attempts to use FU when none available
system.cpu.iq.fu_full::SimdShaSigma3                0      0.00%     99.93% # attempts to use FU when none available
system.cpu.iq.fu_full::SimdPredAlu                  0      0.00%     99.93% # attempts to use FU when none available
system.cpu.iq.fu_full::MemRead                      7      0.01%     99.94% # attempts to use FU when none available
system.cpu.iq.fu_full::MemWrite                    27      0.04%     99.98% # attempts to use FU when none available
system.cpu.iq.fu_full::FloatMemRead                 2      0.00%     99.99% # attempts to use FU when none available
system.cpu.iq.fu_full::FloatMemWrite                8      0.01%    100.00% # attempts to use FU when none available
system.cpu.iq.fu_full::IprAccess                    0      0.00%    100.00% # attempts to use FU when none available
system.cpu.iq.fu_full::InstPrefetch                 0      0.00%    100.00% # attempts to use FU when none available
system.cpu.iq.int_alu_accesses               22597565                       # Number of integer alu accesses
system.cpu.iq.int_inst_queue_reads           56004768                       # Number of integer instruction queue reads
system.cpu.iq.int_inst_queue_wakeup_accesses     22534868                       # Number of integer instruction queue wakeup accesses
system.cpu.iq.int_inst_queue_writes          22557200                       # Number of integer instruction queue writes
system.cpu.iq.iqInstsAdded                   38008951                       # Number of instructions added to the IQ (excludes non-spec)
system.cpu.iq.iqInstsIssued                  38004393                       # Number of instructions issued
system.cpu.iq.iqNonSpecInstsAdded                  62                       # Number of non-speculative instructions added to the IQ
system.cpu.iq.iqSquashedInstsExamined           17906                       # Number of squashed instructions iterated over during squash; mainly for profiling
system.cpu.iq.iqSquashedInstsIssued               268                       # Number of squashed instructions issued
system.cpu.iq.iqSquashedNonSpecRemoved             54                       # Number of squashed non-spec instructions that were removed
system.cpu.iq.iqSquashedOperandsExamined        18700                       # Number of squashed operands that are examined and possibly removed from graph
system.cpu.iq.issued_per_cycle::samples      10870100                       # Number of insts issued each cycle
system.cpu.iq.issued_per_cycle::mean         3.496232                       # Number of insts issued each cycle
system.cpu.iq.issued_per_cycle::stdev        1.655359                       # Number of insts issued each cycle
system.cpu.iq.issued_per_cycle::underflows            0      0.00%      0.00% # Number of insts issued each cycle
system.cpu.iq.issued_per_cycle::0              496627      4.57%      4.57% # Number of insts issued each cycle
system.cpu.iq.issued_per_cycle::1              969825      8.92%     13.49% # Number of insts issued each cycle
system.cpu.iq.issued_per_cycle::2             1163220     10.70%     24.19% # Number of insts issued each cycle
system.cpu.iq.issued_per_cycle::3             2710129     24.93%     49.12% # Number of insts issued each cycle
system.cpu.iq.issued_per_cycle::4             2577971     23.72%     72.84% # Number of insts issued each cycle
system.cpu.iq.issued_per_cycle::5             1898963     17.47%     90.31% # Number of insts issued each cycle
system.cpu.iq.issued_per_cycle::6              672954      6.19%     96.50% # Number of insts issued each cycle
system.cpu.iq.issued_per_cycle::7              309970      2.85%     99.35% # Number of insts issued each cycle
system.cpu.iq.issued_per_cycle::8               70441      0.65%    100.00% # Number of insts issued each cycle
system.cpu.iq.issued_per_cycle::overflows            0      0.00%    100.00% # Number of insts issued each cycle
system.cpu.iq.issued_per_cycle::min_value            0                       # Number of insts issued each cycle
system.cpu.iq.issued_per_cycle::max_value            8                       # Number of insts issued each cycle
system.cpu.iq.issued_per_cycle::total        10870100                       # Number of insts issued each cycle
system.cpu.iq.rate                           3.492179                       # Inst issue rate
system.cpu.iq.vec_alu_accesses                      0                       # Number of vector alu accesses
system.cpu.iq.vec_inst_queue_reads                  0                       # Number of vector instruction queue reads
system.cpu.iq.vec_inst_queue_wakeup_accesses            0                       # Number of vector instruction queue wakeup accesses
system.cpu.iq.vec_inst_queue_writes                 0                       # Number of vector instruction queue writes
system.cpu.itb.rdAccesses                           0                       # TLB accesses on read requests
system.cpu.itb.rdMisses                             0                       # TLB misses on read requests
system.cpu.itb.wrAccesses                      559789                       # TLB accesses on write requests
system.cpu.itb.wrMisses                            43                       # TLB misses on write requests
system.cpu.memDep0.conflictingLoads           2097212                       # Number of conflicting loads.
system.cpu.memDep0.conflictingStores          2097190                       # Number of conflicting stores.
system.cpu.memDep0.insertedLoads              4458902                       # Number of loads inserted to the mem dependence unit.
system.cpu.memDep0.insertedStores             2099327                       # Number of stores inserted to the mem dependence unit.
system.cpu.misc_regfile_reads                11412382                       # number of misc regfile reads
system.cpu.misc_regfile_writes                      1                       # number of misc regfile writes
system.cpu.numCycles                         10882715                       # number of cpu cycles simulated
system.cpu.numWorkItemsCompleted                    0                       # number of work items this cpu completed
system.cpu.numWorkItemsStarted                      0                       # number of work items this cpu started
system.cpu.rename.BlockCycles                 1565917                       # Number of cycles rename is blocking
system.cpu.rename.CommittedMaps              43629765                       # Number of HB maps that are committed
system.cpu.rename.IQFullEvents                 700645                       # Number of times rename has blocked due to IQ full
system.cpu.rename.IdleCycles                  2187685                       # Number of cycles rename is idle
system.cpu.rename.ROBFullEvents               1736596                       # Number of times rename has blocked due to ROB full
system.cpu.rename.RenameLookups              87246934                       # Number of register rename lookups that rename has made
system.cpu.rename.RenamedInsts               38015439                       # Number of instructions processed by rename
system.cpu.rename.RenamedOperands            43656091                       # Number of destination operands rename has renamed
system.cpu.rename.RunCycles                   3787951                       # Number of cycles rename is running
system.cpu.rename.SQFullEvents                   2536                       # Number of times rename has blocked due to SQ full
system.cpu.rename.SquashCycles                    860                       # Number of cycles rename is squashing
system.cpu.rename.UnblockCycles               3326788                       # Number of cycles rename is unblocking
system.cpu.rename.UndoneMaps                    26326                       # Number of HB maps that are undone due to squashing
system.cpu.rename.fp_rename_lookups          23072120                       # Number of floating rename lookups
system.cpu.rename.int_rename_lookups         40782581                       # Number of integer rename lookups
system.cpu.rename.serializeStallCycles            899                       # count of cycles rename stalled for serializing inst
system.cpu.rename.serializingInsts                 22                       # count of serializing insts renamed
system.cpu.rename.skidInsts                  12399173                       # count of insts added to the skid buffer
system.cpu.rename.tempSerializingInsts             16                       # count of temporary serializing insts renamed
system.cpu.rob.rob_reads                     46158204                       # The number of ROB reads
system.cpu.rob.rob_writes                    76020922                       # The number of ROB writes
system.cpu.timesIdled                             188                       # Number of times that the entire CPU went into an idle state and unscheduled itself
system.cpu.workload.numSyscalls                     7                       # Number of system calls
system.l2bus.snoop_filter.hit_multi_requests            1                       # Number of requests hitting in the snoop filter with multiple (>1) holders of the requested data.
system.l2bus.snoop_filter.hit_multi_snoops            0                       # Number of snoops hitting in the snoop filter with multiple (>1) holders of the requested data.
system.l2bus.snoop_filter.hit_single_requests         8201                       # Number of requests hitting in the snoop filter with a single holder of the requested data.
system.l2bus.snoop_filter.hit_single_snoops            0                       # Number of snoops hitting in the snoop filter with a single holder of the requested data.
system.l2bus.snoop_filter.tot_requests          18768                       # Total number of requests made to the snoop filter.
system.l2bus.snoop_filter.tot_snoops                0                       # Total number of snoops made to the snoop filter.
system.membus.snoop_filter.hit_multi_requests            0                       # Number of requests hitting in the snoop filter with multiple (>1) holders of the requested data.
system.membus.snoop_filter.hit_multi_snoops            0                       # Number of snoops hitting in the snoop filter with multiple (>1) holders of the requested data.
system.membus.snoop_filter.hit_single_requests            0                       # Number of requests hitting in the snoop filter with a single holder of the requested data.
system.membus.snoop_filter.hit_single_snoops            0                       # Number of snoops hitting in the snoop filter with a single holder of the requested data.
system.membus.snoop_filter.tot_requests          3557                       # Total number of requests made to the snoop filter.
system.membus.snoop_filter.tot_snoops               0                       # Total number of snoops made to the snoop filter.
system.membus.pwrStateResidencyTicks::UNDEFINED  10882714000                       # Cumulative time (in ticks) in various power states
system.membus.trans_dist::ReadResp               3466                       # Transaction distribution
system.membus.trans_dist::ReadExReq                91                       # Transaction distribution
system.membus.trans_dist::ReadExResp               91                       # Transaction distribution
system.membus.trans_dist::ReadSharedReq          3466                       # Transaction distribution
system.membus.pkt_count_system.l2cache.mem_side::system.mem_ctrl.port         7114                       # Packet count per connected master and slave (bytes)
system.membus.pkt_count_system.l2cache.mem_side::total         7114                       # Packet count per connected master and slave (bytes)
system.membus.pkt_count::total                   7114                       # Packet count per connected master and slave (bytes)
system.membus.pkt_size_system.l2cache.mem_side::system.mem_ctrl.port       227648                       # Cumulative packet size per connected master and slave (bytes)
system.membus.pkt_size_system.l2cache.mem_side::total       227648                       # Cumulative packet size per connected master and slave (bytes)
system.membus.pkt_size::total                  227648                       # Cumulative packet size per connected master and slave (bytes)
system.membus.snoops                                0                       # Total snoops (count)
system.membus.snoopTraffic                          0                       # Total snoop traffic (bytes)
system.membus.snoop_fanout::samples              3557                       # Request fanout histogram
system.membus.snoop_fanout::mean                    0                       # Request fanout histogram
system.membus.snoop_fanout::stdev                   0                       # Request fanout histogram
system.membus.snoop_fanout::underflows              0      0.00%      0.00% # Request fanout histogram
system.membus.snoop_fanout::0                    3557    100.00%    100.00% # Request fanout histogram
system.membus.snoop_fanout::1                       0      0.00%    100.00% # Request fanout histogram
system.membus.snoop_fanout::overflows               0      0.00%    100.00% # Request fanout histogram
system.membus.snoop_fanout::min_value               0                       # Request fanout histogram
system.membus.snoop_fanout::max_value               0                       # Request fanout histogram
system.membus.snoop_fanout::total                3557                       # Request fanout histogram
system.membus.reqLayer2.occupancy             3557000                       # Layer occupancy (ticks)
system.membus.reqLayer2.utilization               0.0                       # Layer utilization (%)
system.membus.respLayer0.occupancy           18792000                       # Layer occupancy (ticks)
system.membus.respLayer0.utilization              0.2                       # Layer utilization (%)
system.l2bus.pwrStateResidencyTicks::UNDEFINED  10882714000                       # Cumulative time (in ticks) in various power states
system.l2bus.trans_dist::ReadResp               10474                       # Transaction distribution
system.l2bus.trans_dist::WritebackDirty           719                       # Transaction distribution
system.l2bus.trans_dist::CleanEvict              7482                       # Transaction distribution
system.l2bus.trans_dist::ReadExReq                 92                       # Transaction distribution
system.l2bus.trans_dist::ReadExResp                92                       # Transaction distribution
system.l2bus.trans_dist::ReadSharedReq          10475                       # Transaction distribution
system.l2bus.pkt_count_system.cpu.icache.mem_side::system.l2cache.cpu_side          635                       # Packet count per connected master and slave (bytes)
system.l2bus.pkt_count_system.cpu.dcache.mem_side::system.l2cache.cpu_side        28699                       # Packet count per connected master and slave (bytes)
system.l2bus.pkt_count::total                   29334                       # Packet count per connected master and slave (bytes)
system.l2bus.pkt_size_system.cpu.icache.mem_side::system.l2cache.cpu_side        20288                       # Cumulative packet size per connected master and slave (bytes)
system.l2bus.pkt_size_system.cpu.dcache.mem_side::system.l2cache.cpu_side       701952                       # Cumulative packet size per connected master and slave (bytes)
system.l2bus.pkt_size::total                   722240                       # Cumulative packet size per connected master and slave (bytes)
system.l2bus.snoops                                 0                       # Total snoops (count)
system.l2bus.snoopTraffic                           0                       # Total snoop traffic (bytes)
system.l2bus.snoop_fanout::samples              10567                       # Request fanout histogram
system.l2bus.snoop_fanout::mean              0.000095                       # Request fanout histogram
system.l2bus.snoop_fanout::stdev             0.009728                       # Request fanout histogram
system.l2bus.snoop_fanout::underflows               0      0.00%      0.00% # Request fanout histogram
system.l2bus.snoop_fanout::0                    10566     99.99%     99.99% # Request fanout histogram
system.l2bus.snoop_fanout::1                        1      0.01%    100.00% # Request fanout histogram
system.l2bus.snoop_fanout::2                        0      0.00%    100.00% # Request fanout histogram
system.l2bus.snoop_fanout::overflows                0      0.00%    100.00% # Request fanout histogram
system.l2bus.snoop_fanout::min_value                0                       # Request fanout histogram
system.l2bus.snoop_fanout::max_value                1                       # Request fanout histogram
system.l2bus.snoop_fanout::total                10567                       # Request fanout histogram
system.l2bus.respLayer1.occupancy            30747000                       # Layer occupancy (ticks)
system.l2bus.respLayer1.utilization               0.3                       # Layer utilization (%)
system.l2bus.reqLayer0.occupancy             20206000                       # Layer occupancy (ticks)
system.l2bus.reqLayer0.utilization                0.2                       # Layer utilization (%)
system.l2bus.respLayer0.occupancy              951000                       # Layer occupancy (ticks)
system.l2bus.respLayer0.utilization               0.0                       # Layer utilization (%)
system.clk_domain.clock                          1000                       # Clock period in ticks
system.clk_domain.voltage_domain.voltage            1                       # Voltage in Volts
system.cpu.pwrStateResidencyTicks::ON     10882714000                       # Cumulative time (in ticks) in various power states
system.cpu.icache.pwrStateResidencyTicks::UNDEFINED  10882714000                       # Cumulative time (in ticks) in various power states
system.cpu.icache.demand_hits::.cpu.inst       559360                       # number of demand (read+write) hits
system.cpu.icache.demand_hits::total           559360                       # number of demand (read+write) hits
system.cpu.icache.overall_hits::.cpu.inst       559360                       # number of overall hits
system.cpu.icache.overall_hits::total          559360                       # number of overall hits
system.cpu.icache.demand_misses::.cpu.inst          414                       # number of demand (read+write) misses
system.cpu.icache.demand_misses::total            414                       # number of demand (read+write) misses
system.cpu.icache.overall_misses::.cpu.inst          414                       # number of overall misses
system.cpu.icache.overall_misses::total           414                       # number of overall misses
system.cpu.icache.demand_miss_latency::.cpu.inst     39528000                       # number of demand (read+write) miss cycles
system.cpu.icache.demand_miss_latency::total     39528000                       # number of demand (read+write) miss cycles
system.cpu.icache.overall_miss_latency::.cpu.inst     39528000                       # number of overall miss cycles
system.cpu.icache.overall_miss_latency::total     39528000                       # number of overall miss cycles
system.cpu.icache.demand_accesses::.cpu.inst       559774                       # number of demand (read+write) accesses
system.cpu.icache.demand_accesses::total       559774                       # number of demand (read+write) accesses
system.cpu.icache.overall_accesses::.cpu.inst       559774                       # number of overall (read+write) accesses
system.cpu.icache.overall_accesses::total       559774                       # number of overall (read+write) accesses
system.cpu.icache.demand_miss_rate::.cpu.inst     0.000740                       # miss rate for demand accesses
system.cpu.icache.demand_miss_rate::total     0.000740                       # miss rate for demand accesses
system.cpu.icache.overall_miss_rate::.cpu.inst     0.000740                       # miss rate for overall accesses
system.cpu.icache.overall_miss_rate::total     0.000740                       # miss rate for overall accesses
system.cpu.icache.demand_avg_miss_latency::.cpu.inst 95478.260870                       # average overall miss latency
system.cpu.icache.demand_avg_miss_latency::total 95478.260870                       # average overall miss latency
system.cpu.icache.overall_avg_miss_latency::.cpu.inst 95478.260870                       # average overall miss latency
system.cpu.icache.overall_avg_miss_latency::total 95478.260870                       # average overall miss latency
system.cpu.icache.blocked_cycles::no_mshrs          109                       # number of cycles access was blocked
system.cpu.icache.blocked_cycles::no_targets            0                       # number of cycles access was blocked
system.cpu.icache.blocked::no_mshrs                 2                       # number of cycles access was blocked
system.cpu.icache.blocked::no_targets               0                       # number of cycles access was blocked
system.cpu.icache.avg_blocked_cycles::no_mshrs    54.500000                       # average number of cycles each access was blocked
system.cpu.icache.avg_blocked_cycles::no_targets          nan                       # average number of cycles each access was blocked
system.cpu.icache.demand_mshr_hits::.cpu.inst           96                       # number of demand (read+write) MSHR hits
system.cpu.icache.demand_mshr_hits::total           96                       # number of demand (read+write) MSHR hits
system.cpu.icache.overall_mshr_hits::.cpu.inst           96                       # number of overall MSHR hits
system.cpu.icache.overall_mshr_hits::total           96                       # number of overall MSHR hits
system.cpu.icache.demand_mshr_misses::.cpu.inst          318                       # number of demand (read+write) MSHR misses
system.cpu.icache.demand_mshr_misses::total          318                       # number of demand (read+write) MSHR misses
system.cpu.icache.overall_mshr_misses::.cpu.inst          318                       # number of overall MSHR misses
system.cpu.icache.overall_mshr_misses::total          318                       # number of overall MSHR misses
system.cpu.icache.demand_mshr_miss_latency::.cpu.inst     31775000                       # number of demand (read+write) MSHR miss cycles
system.cpu.icache.demand_mshr_miss_latency::total     31775000                       # number of demand (read+write) MSHR miss cycles
system.cpu.icache.overall_mshr_miss_latency::.cpu.inst     31775000                       # number of overall MSHR miss cycles
system.cpu.icache.overall_mshr_miss_latency::total     31775000                       # number of overall MSHR miss cycles
system.cpu.icache.demand_mshr_miss_rate::.cpu.inst     0.000568                       # mshr miss rate for demand accesses
system.cpu.icache.demand_mshr_miss_rate::total     0.000568                       # mshr miss rate for demand accesses
system.cpu.icache.overall_mshr_miss_rate::.cpu.inst     0.000568                       # mshr miss rate for overall accesses
system.cpu.icache.overall_mshr_miss_rate::total     0.000568                       # mshr miss rate for overall accesses
system.cpu.icache.demand_avg_mshr_miss_latency::.cpu.inst 99921.383648                       # average overall mshr miss latency
system.cpu.icache.demand_avg_mshr_miss_latency::total 99921.383648                       # average overall mshr miss latency
system.cpu.icache.overall_avg_mshr_miss_latency::.cpu.inst 99921.383648                       # average overall mshr miss latency
system.cpu.icache.overall_avg_mshr_miss_latency::total 99921.383648                       # average overall mshr miss latency
system.cpu.icache.replacements                      0                       # number of replacements
system.cpu.icache.ReadReq_hits::.cpu.inst       559360                       # number of ReadReq hits
system.cpu.icache.ReadReq_hits::total          559360                       # number of ReadReq hits
system.cpu.icache.ReadReq_misses::.cpu.inst          414                       # number of ReadReq misses
system.cpu.icache.ReadReq_misses::total           414                       # number of ReadReq misses
system.cpu.icache.ReadReq_miss_latency::.cpu.inst     39528000                       # number of ReadReq miss cycles
system.cpu.icache.ReadReq_miss_latency::total     39528000                       # number of ReadReq miss cycles
system.cpu.icache.ReadReq_accesses::.cpu.inst       559774                       # number of ReadReq accesses(hits+misses)
system.cpu.icache.ReadReq_accesses::total       559774                       # number of ReadReq accesses(hits+misses)
system.cpu.icache.ReadReq_miss_rate::.cpu.inst     0.000740                       # miss rate for ReadReq accesses
system.cpu.icache.ReadReq_miss_rate::total     0.000740                       # miss rate for ReadReq accesses
system.cpu.icache.ReadReq_avg_miss_latency::.cpu.inst 95478.260870                       # average ReadReq miss latency
system.cpu.icache.ReadReq_avg_miss_latency::total 95478.260870                       # average ReadReq miss latency
system.cpu.icache.ReadReq_mshr_hits::.cpu.inst           96                       # number of ReadReq MSHR hits
system.cpu.icache.ReadReq_mshr_hits::total           96                       # number of ReadReq MSHR hits
system.cpu.icache.ReadReq_mshr_misses::.cpu.inst          318                       # number of ReadReq MSHR misses
system.cpu.icache.ReadReq_mshr_misses::total          318                       # number of ReadReq MSHR misses
system.cpu.icache.ReadReq_mshr_miss_latency::.cpu.inst     31775000                       # number of ReadReq MSHR miss cycles
system.cpu.icache.ReadReq_mshr_miss_latency::total     31775000                       # number of ReadReq MSHR miss cycles
system.cpu.icache.ReadReq_mshr_miss_rate::.cpu.inst     0.000568                       # mshr miss rate for ReadReq accesses
system.cpu.icache.ReadReq_mshr_miss_rate::total     0.000568                       # mshr miss rate for ReadReq accesses
system.cpu.icache.ReadReq_avg_mshr_miss_latency::.cpu.inst 99921.383648                       # average ReadReq mshr miss latency
system.cpu.icache.ReadReq_avg_mshr_miss_latency::total 99921.383648                       # average ReadReq mshr miss latency
system.cpu.icache.tags.pwrStateResidencyTicks::UNDEFINED  10882714000                       # Cumulative time (in ticks) in various power states
system.cpu.icache.tags.tagsinuse           292.580352                       # Cycle average of tags in use
system.cpu.icache.tags.total_refs              559677                       # Total number of references to valid blocks.
system.cpu.icache.tags.sampled_refs               317                       # Sample count of references to valid blocks.
system.cpu.icache.tags.avg_refs           1765.542587                       # Average number of references to valid blocks.
system.cpu.icache.tags.warmup_cycle            107000                       # Cycle when the warmup percentage was hit.
system.cpu.icache.tags.occ_blocks::.cpu.inst   292.580352                       # Average occupied blocks per requestor
system.cpu.icache.tags.occ_percent::.cpu.inst     0.142862                       # Average percentage of cache occupancy
system.cpu.icache.tags.occ_percent::total     0.142862                       # Average percentage of cache occupancy
system.cpu.icache.tags.occ_task_id_blocks::1024          317                       # Occupied blocks per task id
system.cpu.icache.tags.age_task_id_blocks_1024::0           24                       # Occupied blocks per task id
system.cpu.icache.tags.age_task_id_blocks_1024::4          293                       # Occupied blocks per task id
system.cpu.icache.tags.occ_task_id_percent::1024     0.154785                       # Percentage of cache occupancy per task id
system.cpu.icache.tags.tag_accesses           1119865                       # Number of tag accesses
system.cpu.icache.tags.data_accesses          1119865                       # Number of data accesses
system.cpu.dtb.walker.pwrStateResidencyTicks::UNDEFINED  10882714000                       # Cumulative time (in ticks) in various power states
system.cpu.interrupts.clk_domain.clock          16000                       # Clock period in ticks
system.cpu.itb.walker.pwrStateResidencyTicks::UNDEFINED  10882714000                       # Cumulative time (in ticks) in various power states
system.cpu.dcache.pwrStateResidencyTicks::UNDEFINED  10882714000                       # Cumulative time (in ticks) in various power states
system.cpu.dcache.demand_hits::.cpu.data      6795315                       # number of demand (read+write) hits
system.cpu.dcache.demand_hits::total          6795315                       # number of demand (read+write) hits
system.cpu.dcache.overall_hits::.cpu.data      6795315                       # number of overall hits
system.cpu.dcache.overall_hits::total         6795315                       # number of overall hits
system.cpu.dcache.demand_misses::.cpu.data        22903                       # number of demand (read+write) misses
system.cpu.dcache.demand_misses::total          22903                       # number of demand (read+write) misses
system.cpu.dcache.overall_misses::.cpu.data        22903                       # number of overall misses
system.cpu.dcache.overall_misses::total         22903                       # number of overall misses
system.cpu.dcache.demand_miss_latency::.cpu.data    844885000                       # number of demand (read+write) miss cycles
system.cpu.dcache.demand_miss_latency::total    844885000                       # number of demand (read+write) miss cycles
system.cpu.dcache.overall_miss_latency::.cpu.data    844885000                       # number of overall miss cycles
system.cpu.dcache.overall_miss_latency::total    844885000                       # number of overall miss cycles
system.cpu.dcache.demand_accesses::.cpu.data      6818218                       # number of demand (read+write) accesses
system.cpu.dcache.demand_accesses::total      6818218                       # number of demand (read+write) accesses
system.cpu.dcache.overall_accesses::.cpu.data      6818218                       # number of overall (read+write) accesses
system.cpu.dcache.overall_accesses::total      6818218                       # number of overall (read+write) accesses
system.cpu.dcache.demand_miss_rate::.cpu.data     0.003359                       # miss rate for demand accesses
system.cpu.dcache.demand_miss_rate::total     0.003359                       # miss rate for demand accesses
system.cpu.dcache.overall_miss_rate::.cpu.data     0.003359                       # miss rate for overall accesses
system.cpu.dcache.overall_miss_rate::total     0.003359                       # miss rate for overall accesses
system.cpu.dcache.demand_avg_miss_latency::.cpu.data 36889.708772                       # average overall miss latency
system.cpu.dcache.demand_avg_miss_latency::total 36889.708772                       # average overall miss latency
system.cpu.dcache.overall_avg_miss_latency::.cpu.data 36889.708772                       # average overall miss latency
system.cpu.dcache.overall_avg_miss_latency::total 36889.708772                       # average overall miss latency
system.cpu.dcache.blocked_cycles::no_mshrs          405                       # number of cycles access was blocked
system.cpu.dcache.blocked_cycles::no_targets            0                       # number of cycles access was blocked
system.cpu.dcache.blocked::no_mshrs                16                       # number of cycles access was blocked
system.cpu.dcache.blocked::no_targets               0                       # number of cycles access was blocked
system.cpu.dcache.avg_blocked_cycles::no_mshrs    25.312500                       # average number of cycles each access was blocked
system.cpu.dcache.avg_blocked_cycles::no_targets          nan                       # average number of cycles each access was blocked
system.cpu.dcache.writebacks::.writebacks          719                       # number of writebacks
system.cpu.dcache.writebacks::total               719                       # number of writebacks
system.cpu.dcache.demand_mshr_hits::.cpu.data        12654                       # number of demand (read+write) MSHR hits
system.cpu.dcache.demand_mshr_hits::total        12654                       # number of demand (read+write) MSHR hits
system.cpu.dcache.overall_mshr_hits::.cpu.data        12654                       # number of overall MSHR hits
system.cpu.dcache.overall_mshr_hits::total        12654                       # number of overall MSHR hits
system.cpu.dcache.demand_mshr_misses::.cpu.data        10249                       # number of demand (read+write) MSHR misses
system.cpu.dcache.demand_mshr_misses::total        10249                       # number of demand (read+write) MSHR misses
system.cpu.dcache.overall_mshr_misses::.cpu.data        10249                       # number of overall MSHR misses
system.cpu.dcache.overall_mshr_misses::total        10249                       # number of overall MSHR misses
system.cpu.dcache.demand_mshr_miss_latency::.cpu.data    512069000                       # number of demand (read+write) MSHR miss cycles
system.cpu.dcache.demand_mshr_miss_latency::total    512069000                       # number of demand (read+write) MSHR miss cycles
system.cpu.dcache.overall_mshr_miss_latency::.cpu.data    512069000                       # number of overall MSHR miss cycles
system.cpu.dcache.overall_mshr_miss_latency::total    512069000                       # number of overall MSHR miss cycles
system.cpu.dcache.demand_mshr_miss_rate::.cpu.data     0.001503                       # mshr miss rate for demand accesses
system.cpu.dcache.demand_mshr_miss_rate::total     0.001503                       # mshr miss rate for demand accesses
system.cpu.dcache.overall_mshr_miss_rate::.cpu.data     0.001503                       # mshr miss rate for overall accesses
system.cpu.dcache.overall_mshr_miss_rate::total     0.001503                       # mshr miss rate for overall accesses
system.cpu.dcache.demand_avg_mshr_miss_latency::.cpu.data 49962.825642                       # average overall mshr miss latency
system.cpu.dcache.demand_avg_mshr_miss_latency::total 49962.825642                       # average overall mshr miss latency
system.cpu.dcache.overall_avg_mshr_miss_latency::.cpu.data 49962.825642                       # average overall mshr miss latency
system.cpu.dcache.overall_avg_mshr_miss_latency::total 49962.825642                       # average overall mshr miss latency
system.cpu.dcache.replacements                   8201                       # number of replacements
system.cpu.dcache.ReadReq_hits::.cpu.data      4697233                       # number of ReadReq hits
system.cpu.dcache.ReadReq_hits::total         4697233                       # number of ReadReq hits
system.cpu.dcache.ReadReq_misses::.cpu.data        22810                       # number of ReadReq misses
system.cpu.dcache.ReadReq_misses::total         22810                       # number of ReadReq misses
system.cpu.dcache.ReadReq_miss_latency::.cpu.data    835557000                       # number of ReadReq miss cycles
system.cpu.dcache.ReadReq_miss_latency::total    835557000                       # number of ReadReq miss cycles
system.cpu.dcache.ReadReq_accesses::.cpu.data      4720043                       # number of ReadReq accesses(hits+misses)
system.cpu.dcache.ReadReq_accesses::total      4720043                       # number of ReadReq accesses(hits+misses)
system.cpu.dcache.ReadReq_miss_rate::.cpu.data     0.004833                       # miss rate for ReadReq accesses
system.cpu.dcache.ReadReq_miss_rate::total     0.004833                       # miss rate for ReadReq accesses
system.cpu.dcache.ReadReq_avg_miss_latency::.cpu.data 36631.170539                       # average ReadReq miss latency
system.cpu.dcache.ReadReq_avg_miss_latency::total 36631.170539                       # average ReadReq miss latency
system.cpu.dcache.ReadReq_mshr_hits::.cpu.data        12653                       # number of ReadReq MSHR hits
system.cpu.dcache.ReadReq_mshr_hits::total        12653                       # number of ReadReq MSHR hits
system.cpu.dcache.ReadReq_mshr_misses::.cpu.data        10157                       # number of ReadReq MSHR misses
system.cpu.dcache.ReadReq_mshr_misses::total        10157                       # number of ReadReq MSHR misses
system.cpu.dcache.ReadReq_mshr_miss_latency::.cpu.data    503004000                       # number of ReadReq MSHR miss cycles
system.cpu.dcache.ReadReq_mshr_miss_latency::total    503004000                       # number of ReadReq MSHR miss cycles
system.cpu.dcache.ReadReq_mshr_miss_rate::.cpu.data     0.002152                       # mshr miss rate for ReadReq accesses
system.cpu.dcache.ReadReq_mshr_miss_rate::total     0.002152                       # mshr miss rate for ReadReq accesses
system.cpu.dcache.ReadReq_avg_mshr_miss_latency::.cpu.data 49522.890617                       # average ReadReq mshr miss latency
system.cpu.dcache.ReadReq_avg_mshr_miss_latency::total 49522.890617                       # average ReadReq mshr miss latency
system.cpu.dcache.WriteReq_hits::.cpu.data      2098082                       # number of WriteReq hits
system.cpu.dcache.WriteReq_hits::total        2098082                       # number of WriteReq hits
system.cpu.dcache.WriteReq_misses::.cpu.data           93                       # number of WriteReq misses
system.cpu.dcache.WriteReq_misses::total           93                       # number of WriteReq misses
system.cpu.dcache.WriteReq_miss_latency::.cpu.data      9328000                       # number of WriteReq miss cycles
system.cpu.dcache.WriteReq_miss_latency::total      9328000                       # number of WriteReq miss cycles
system.cpu.dcache.WriteReq_accesses::.cpu.data      2098175                       # number of WriteReq accesses(hits+misses)
system.cpu.dcache.WriteReq_accesses::total      2098175                       # number of WriteReq accesses(hits+misses)
system.cpu.dcache.WriteReq_miss_rate::.cpu.data     0.000044                       # miss rate for WriteReq accesses
system.cpu.dcache.WriteReq_miss_rate::total     0.000044                       # miss rate for WriteReq accesses
system.cpu.dcache.WriteReq_avg_miss_latency::.cpu.data 100301.075269                       # average WriteReq miss latency
system.cpu.dcache.WriteReq_avg_miss_latency::total 100301.075269                       # average WriteReq miss latency
system.cpu.dcache.WriteReq_mshr_hits::.cpu.data            1                       # number of WriteReq MSHR hits
system.cpu.dcache.WriteReq_mshr_hits::total            1                       # number of WriteReq MSHR hits
system.cpu.dcache.WriteReq_mshr_misses::.cpu.data           92                       # number of WriteReq MSHR misses
system.cpu.dcache.WriteReq_mshr_misses::total           92                       # number of WriteReq MSHR misses
system.cpu.dcache.WriteReq_mshr_miss_latency::.cpu.data      9065000                       # number of WriteReq MSHR miss cycles
system.cpu.dcache.WriteReq_mshr_miss_latency::total      9065000                       # number of WriteReq MSHR miss cycles
system.cpu.dcache.WriteReq_mshr_miss_rate::.cpu.data     0.000044                       # mshr miss rate for WriteReq accesses
system.cpu.dcache.WriteReq_mshr_miss_rate::total     0.000044                       # mshr miss rate for WriteReq accesses
system.cpu.dcache.WriteReq_avg_mshr_miss_latency::.cpu.data 98532.608696                       # average WriteReq mshr miss latency
system.cpu.dcache.WriteReq_avg_mshr_miss_latency::total 98532.608696                       # average WriteReq mshr miss latency
system.cpu.dcache.tags.pwrStateResidencyTicks::UNDEFINED  10882714000                       # Cumulative time (in ticks) in various power states
system.cpu.dcache.tags.tagsinuse          1668.636707                       # Cycle average of tags in use
system.cpu.dcache.tags.total_refs             6805564                       # Total number of references to valid blocks.
system.cpu.dcache.tags.sampled_refs             10249                       # Sample count of references to valid blocks.
system.cpu.dcache.tags.avg_refs            664.022246                       # Average number of references to valid blocks.
system.cpu.dcache.tags.warmup_cycle            222000                       # Cycle when the warmup percentage was hit.
system.cpu.dcache.tags.occ_blocks::.cpu.data  1668.636707                       # Average occupied blocks per requestor
system.cpu.dcache.tags.occ_percent::.cpu.data     0.814764                       # Average percentage of cache occupancy
system.cpu.dcache.tags.occ_percent::total     0.814764                       # Average percentage of cache occupancy
system.cpu.dcache.tags.occ_task_id_blocks::1024         2048                       # Occupied blocks per task id
system.cpu.dcache.tags.age_task_id_blocks_1024::0           63                       # Occupied blocks per task id
system.cpu.dcache.tags.age_task_id_blocks_1024::1          132                       # Occupied blocks per task id
system.cpu.dcache.tags.age_task_id_blocks_1024::2          165                       # Occupied blocks per task id
system.cpu.dcache.tags.age_task_id_blocks_1024::3         1495                       # Occupied blocks per task id
system.cpu.dcache.tags.age_task_id_blocks_1024::4          193                       # Occupied blocks per task id
system.cpu.dcache.tags.occ_task_id_percent::1024            1                       # Percentage of cache occupancy per task id
system.cpu.dcache.tags.tag_accesses          13646685                       # Number of tag accesses
system.cpu.dcache.tags.data_accesses         13646685                       # Number of data accesses
system.l2cache.pwrStateResidencyTicks::UNDEFINED  10882714000                       # Cumulative time (in ticks) in various power states
system.l2cache.demand_hits::.cpu.inst               1                       # number of demand (read+write) hits
system.l2cache.demand_hits::.cpu.data            7008                       # number of demand (read+write) hits
system.l2cache.demand_hits::total                7009                       # number of demand (read+write) hits
system.l2cache.overall_hits::.cpu.inst              1                       # number of overall hits
system.l2cache.overall_hits::.cpu.data           7008                       # number of overall hits
system.l2cache.overall_hits::total               7009                       # number of overall hits
system.l2cache.demand_misses::.cpu.inst           317                       # number of demand (read+write) misses
system.l2cache.demand_misses::.cpu.data          3241                       # number of demand (read+write) misses
system.l2cache.demand_misses::total              3558                       # number of demand (read+write) misses
system.l2cache.overall_misses::.cpu.inst          317                       # number of overall misses
system.l2cache.overall_misses::.cpu.data         3241                       # number of overall misses
system.l2cache.overall_misses::total             3558                       # number of overall misses
system.l2cache.demand_miss_latency::.cpu.inst     30800000                       # number of demand (read+write) miss cycles
system.l2cache.demand_miss_latency::.cpu.data    321998000                       # number of demand (read+write) miss cycles
system.l2cache.demand_miss_latency::total    352798000                       # number of demand (read+write) miss cycles
system.l2cache.overall_miss_latency::.cpu.inst     30800000                       # number of overall miss cycles
system.l2cache.overall_miss_latency::.cpu.data    321998000                       # number of overall miss cycles
system.l2cache.overall_miss_latency::total    352798000                       # number of overall miss cycles
[...]
system.mem_ctrl.rdQLenPdf::11                       0                       # What read queue length does an incoming req see
system.mem_ctrl.rdQLenPdf::12                       0                       # What read queue length does an incoming req see
system.mem_ctrl.rdQLenPdf::13                       0                       # What read queue length does an incoming req see
system.mem_ctrl.rdQLenPdf::14                       0                       # What read queue length does an incoming req see
system.mem_ctrl.rdQLenPdf::15                       0                       # What read queue length does an incoming req see
system.mem_ctrl.rdQLenPdf::16                       0                       # What read queue length does an incoming req see
system.mem_ctrl.rdQLenPdf::17                       0                       # What read queue length does an incoming req see
system.mem_ctrl.rdQLenPdf::18                       0                       # What read queue length does an incoming req see
system.mem_ctrl.rdQLenPdf::19                       0                       # What read queue length does an incoming req see
system.mem_ctrl.rdQLenPdf::20                       0                       # What read queue length does an incoming req see
system.mem_ctrl.rdQLenPdf::21                       0                       # What read queue length does an incoming req see
system.mem_ctrl.rdQLenPdf::22                       0                       # What read queue length does an incoming req see
system.mem_ctrl.rdQLenPdf::23                       0                       # What read queue length does an incoming req see
system.mem_ctrl.rdQLenPdf::24                       0                       # What read queue length does an incoming req see
system.mem_ctrl.rdQLenPdf::25                       0                       # What read queue length does an incoming req see
system.mem_ctrl.rdQLenPdf::26                       0                       # What read queue length does an incoming req see
system.mem_ctrl.rdQLenPdf::27                       0                       # What read queue length does an incoming req see
system.mem_ctrl.rdQLenPdf::28                       0                       # What read queue length does an incoming req see
system.mem_ctrl.rdQLenPdf::29                       0                       # What read queue length does an incoming req see
system.mem_ctrl.rdQLenPdf::30                       0                       # What read queue length does an incoming req see
system.mem_ctrl.rdQLenPdf::31                       0                       # What read queue length does an incoming req see
system.mem_ctrl.wrQLenPdf::0                        0                       # What write queue length does an incoming req see
system.mem_ctrl.wrQLenPdf::1                        0                       # What write queue length does an incoming req see
system.mem_ctrl.wrQLenPdf::2                        0                       # What write queue length does an incoming req see
system.mem_ctrl.wrQLenPdf::3                        0                       # What write queue length does an incoming req see
system.mem_ctrl.wrQLenPdf::4                        0                       # What write queue length does an incoming req see
system.mem_ctrl.wrQLenPdf::5                        0                       # What write queue length does an incoming req see
system.mem_ctrl.wrQLenPdf::6                        0                       # What write queue length does an incoming req see
system.mem_ctrl.wrQLenPdf::7                        0                       # What write queue length does an incoming req see
system.mem_ctrl.wrQLenPdf::8                        0                       # What write queue length does an incoming req see
system.mem_ctrl.wrQLenPdf::9                        0                       # What write queue length does an incoming req see
system.mem_ctrl.wrQLenPdf::10                       0                       # What write queue length does an incoming req see
system.mem_ctrl.wrQLenPdf::11                       0                       # What write queue length does an incoming req see
system.mem_ctrl.wrQLenPdf::12                       0                       # What write queue length does an incoming req see
system.mem_ctrl.wrQLenPdf::13                       0                       # What write queue length does an incoming req see
system.mem_ctrl.wrQLenPdf::14                       0                       # What write queue length does an incoming req see
system.mem_ctrl.wrQLenPdf::15                       0                       # What write queue length does an incoming req see
system.mem_ctrl.wrQLenPdf::16                       0                       # What write queue length does an incoming req see
system.mem_ctrl.wrQLenPdf::17                       0                       # What write queue length does an incoming req see
system.mem_ctrl.wrQLenPdf::18                       0                       # What write queue length does an incoming req see
system.mem_ctrl.wrQLenPdf::19                       0                       # What write queue length does an incoming req see
system.mem_ctrl.wrQLenPdf::20                       0                       # What write queue length does an incoming req see
system.mem_ctrl.wrQLenPdf::21                       0                       # What write queue length does an incoming req see
system.mem_ctrl.wrQLenPdf::22                       0                       # What write queue length does an incoming req see
system.mem_ctrl.wrQLenPdf::23                       0                       # What write queue length does an incoming req see
system.mem_ctrl.wrQLenPdf::24                       0                       # What write queue length does an incoming req see
system.mem_ctrl.wrQLenPdf::25                       0                       # What write queue length does an incoming req see
system.mem_ctrl.wrQLenPdf::26                       0                       # What write queue length does an incoming req see
system.mem_ctrl.wrQLenPdf::27                       0                       # What write queue length does an incoming req see
system.mem_ctrl.wrQLenPdf::28                       0                       # What write queue length does an incoming req see
system.mem_ctrl.wrQLenPdf::29                       0                       # What write queue length does an incoming req see
system.mem_ctrl.wrQLenPdf::30                       0                       # What write queue length does an incoming req see
system.mem_ctrl.wrQLenPdf::31                       0                       # What write queue length does an incoming req see
system.mem_ctrl.wrQLenPdf::32                       0                       # What write queue length does an incoming req see
system.mem_ctrl.wrQLenPdf::33                       0                       # What write queue length does an incoming req see
system.mem_ctrl.wrQLenPdf::34                       0                       # What write queue length does an incoming req see
system.mem_ctrl.wrQLenPdf::35                       0                       # What write queue length does an incoming req see
system.mem_ctrl.wrQLenPdf::36                       0                       # What write queue length does an incoming req see
system.mem_ctrl.wrQLenPdf::37                       0                       # What write queue length does an incoming req see
system.mem_ctrl.wrQLenPdf::38                       0                       # What write queue length does an incoming req see
system.mem_ctrl.wrQLenPdf::39                       0                       # What write queue length does an incoming req see
system.mem_ctrl.wrQLenPdf::40                       0                       # What write queue length does an incoming req see
system.mem_ctrl.wrQLenPdf::41                       0                       # What write queue length does an incoming req see
system.mem_ctrl.wrQLenPdf::42                       0                       # What write queue length does an incoming req see
system.mem_ctrl.wrQLenPdf::43                       0                       # What write queue length does an incoming req see
system.mem_ctrl.wrQLenPdf::44                       0                       # What write queue length does an incoming req see
system.mem_ctrl.wrQLenPdf::45                       0                       # What write queue length does an incoming req see
system.mem_ctrl.wrQLenPdf::46                       0                       # What write queue length does an incoming req see
system.mem_ctrl.wrQLenPdf::47                       0                       # What write queue length does an incoming req see
system.mem_ctrl.wrQLenPdf::48                       0                       # What write queue length does an incoming req see
system.mem_ctrl.wrQLenPdf::49                       0                       # What write queue length does an incoming req see
system.mem_ctrl.wrQLenPdf::50                       0                       # What write queue length does an incoming req see
system.mem_ctrl.wrQLenPdf::51                       0                       # What write queue length does an incoming req see
system.mem_ctrl.wrQLenPdf::52                       0                       # What write queue length does an incoming req see
system.mem_ctrl.wrQLenPdf::53                       0                       # What write queue length does an incoming req see
system.mem_ctrl.wrQLenPdf::54                       0                       # What write queue length does an incoming req see
system.mem_ctrl.wrQLenPdf::55                       0                       # What write queue length does an incoming req see
system.mem_ctrl.wrQLenPdf::56                       0                       # What write queue length does an incoming req see
system.mem_ctrl.wrQLenPdf::57                       0                       # What write queue length does an incoming req see
system.mem_ctrl.wrQLenPdf::58                       0                       # What write queue length does an incoming req see
system.mem_ctrl.wrQLenPdf::59                       0                       # What write queue length does an incoming req see
system.mem_ctrl.wrQLenPdf::60                       0                       # What write queue length does an incoming req see
system.mem_ctrl.wrQLenPdf::61                       0                       # What write queue length does an incoming req see
system.mem_ctrl.wrQLenPdf::62                       0                       # What write queue length does an incoming req see
system.mem_ctrl.wrQLenPdf::63                       0                       # What write queue length does an incoming req see
system.mem_ctrl.bytesPerActivate::samples          501                       # Bytes accessed per row activation
system.mem_ctrl.bytesPerActivate::mean     449.788423                       # Bytes accessed per row activation
system.mem_ctrl.bytesPerActivate::gmean    325.531124                       # Bytes accessed per row activation
system.mem_ctrl.bytesPerActivate::stdev    296.280724                       # Bytes accessed per row activation
system.mem_ctrl.bytesPerActivate::0-127            87     17.37%     17.37% # Bytes accessed per row activation
system.mem_ctrl.bytesPerActivate::128-255           57     11.38%     28.74% # Bytes accessed per row activation
system.mem_ctrl.bytesPerActivate::256-383           44      8.78%     37.52% # Bytes accessed per row activation
system.mem_ctrl.bytesPerActivate::384-511           76     15.17%     52.69% # Bytes accessed per row activation
system.mem_ctrl.bytesPerActivate::512-639          116     23.15%     75.85% # Bytes accessed per row activation
system.mem_ctrl.bytesPerActivate::640-767           23      4.59%     80.44% # Bytes accessed per row activation
system.mem_ctrl.bytesPerActivate::768-895           31      6.19%     86.63% # Bytes accessed per row activation
system.mem_ctrl.bytesPerActivate::896-1023           32      6.39%     93.01% # Bytes accessed per row activation
system.mem_ctrl.bytesPerActivate::1024-1151           35      6.99%    100.00% # Bytes accessed per row activation
system.mem_ctrl.bytesPerActivate::total           501                       # Bytes accessed per row activation
system.mem_ctrl.bytesReadDRAM                  227648                       # Total number of bytes read from DRAM
system.mem_ctrl.bytesReadWrQ                        0                       # Total number of bytes read from write queue
system.mem_ctrl.bytesWritten                        0                       # Total number of bytes written to DRAM
system.mem_ctrl.bytesReadSys                   227648                       # Total read bytes from the system interface side
system.mem_ctrl.bytesWrittenSys                     0                       # Total written bytes from the system interface side
system.mem_ctrl.avgRdBW                         20.92                       # Average DRAM read bandwidth in MiByte/s
system.mem_ctrl.avgWrBW                          0.00                       # Average achieved write bandwidth in MiByte/s
system.mem_ctrl.avgRdBWSys                      20.92                       # Average system read bandwidth in MiByte/s
system.mem_ctrl.avgWrBWSys                       0.00                       # Average system write bandwidth in MiByte/s
system.mem_ctrl.peakBW                       12800.00                       # Theoretical peak bandwidth in MiByte/s
system.mem_ctrl.busUtil                          0.16                       # Data bus utilization in percentage
system.mem_ctrl.busUtilRead                      0.16                       # Data bus utilization in percentage for reads
system.mem_ctrl.busUtilWrite                     0.00                       # Data bus utilization in percentage for writes
system.mem_ctrl.totGap                    10882607000                       # Total gap between requests
system.mem_ctrl.avgGap                     3059490.30                       # Average gap between requests
system.mem_ctrl.masterReadBytes::.cpu.inst        20224                       # Per-master bytes read from memory
system.mem_ctrl.masterReadBytes::.cpu.data       207424                       # Per-master bytes read from memory
system.mem_ctrl.masterReadRate::.cpu.inst 1858359.964251564350                       # Per-master bytes read from memory rate (Bytes/sec)
system.mem_ctrl.masterReadRate::.cpu.data 19059951.405504178256                       # Per-master bytes read from memory rate (Bytes/sec)
system.mem_ctrl.masterReadAccesses::.cpu.inst          316                       # Per-master read serviced memory accesses
system.mem_ctrl.masterReadAccesses::.cpu.data         3241                       # Per-master read serviced memory accesses
system.mem_ctrl.masterReadTotalLat::.cpu.inst      8269250                       # Per-master read total memory access latency
system.mem_ctrl.masterReadTotalLat::.cpu.data     90960500                       # Per-master read total memory access latency
system.mem_ctrl.masterReadAvgLat::.cpu.inst     26168.51                       # Per-master read average memory access latency
system.mem_ctrl.masterReadAvgLat::.cpu.data     28065.57                       # Per-master read average memory access latency
system.mem_ctrl.pageHitRate                     85.69                       # Row buffer hit rate, read and write combined
system.mem_ctrl.rank1.actEnergy               1292340                       # Energy for activate commands per rank (pJ)
system.mem_ctrl.rank1.preEnergy                667920                       # Energy for precharge commands per rank (pJ)
system.mem_ctrl.rank1.readEnergy              9060660                       # Energy for read commands per rank (pJ)
system.mem_ctrl.rank1.writeEnergy                   0                       # Energy for write commands per rank (pJ)
system.mem_ctrl.rank1.refreshEnergy      858652080.000000                       # Energy for refresh commands per rank (pJ)
system.mem_ctrl.rank1.actBackEnergy         394123650                       # Energy for active background per rank (pJ)
system.mem_ctrl.rank1.preBackEnergy        3847068960                       # Energy for precharge background per rank (pJ)
system.mem_ctrl.rank1.actPowerDownEnergy            0                       # Energy for active power-down per rank (pJ)
system.mem_ctrl.rank1.prePowerDownEnergy            0                       # Energy for precharge power-down per rank (pJ)
system.mem_ctrl.rank1.selfRefreshEnergy             0                       # Energy for self refresh per rank (pJ)
system.mem_ctrl.rank1.totalEnergy          5110865610                       # Total energy per rank (pJ)
system.mem_ctrl.rank1.averagePower         469.631528                       # Core power per rank (mW)
system.mem_ctrl.rank1.totalIdleTime                 0                       # Total Idle time Per DRAM Rank
system.mem_ctrl.rank1.memoryStateTime::IDLE   9998075000                       # Time in different power states
system.mem_ctrl.rank1.memoryStateTime::REF    363220000                       # Time in different power states
system.mem_ctrl.rank1.memoryStateTime::SREF            0                       # Time in different power states
system.mem_ctrl.rank1.memoryStateTime::PRE_PDN            0                       # Time in different power states
system.mem_ctrl.rank1.memoryStateTime::ACT    521419000                       # Time in different power states
system.mem_ctrl.rank1.memoryStateTime::ACT_PDN            0                       # Time in different power states
system.mem_ctrl.rank0.actEnergy               2341920                       # Energy for activate commands per rank (pJ)
system.mem_ctrl.rank0.preEnergy               1233375                       # Energy for precharge commands per rank (pJ)
system.mem_ctrl.rank0.readEnergy             16336320                       # Energy for read commands per rank (pJ)
system.mem_ctrl.rank0.writeEnergy                   0                       # Energy for write commands per rank (pJ)
system.mem_ctrl.rank0.refreshEnergy      858652080.000000                       # Energy for refresh commands per rank (pJ)
system.mem_ctrl.rank0.actBackEnergy         578634360                       # Energy for active background per rank (pJ)
system.mem_ctrl.rank0.preBackEnergy        3691691520                       # Energy for precharge background per rank (pJ)
system.mem_ctrl.rank0.actPowerDownEnergy            0                       # Energy for active power-down per rank (pJ)
system.mem_ctrl.rank0.prePowerDownEnergy            0                       # Energy for precharge power-down per rank (pJ)
system.mem_ctrl.rank0.selfRefreshEnergy             0                       # Energy for self refresh per rank (pJ)
system.mem_ctrl.rank0.totalEnergy          5148889575                       # Total energy per rank (pJ)
system.mem_ctrl.rank0.averagePower         473.125507                       # Core power per rank (mW)
system.mem_ctrl.rank0.totalIdleTime                 0                       # Total Idle time Per DRAM Rank
system.mem_ctrl.rank0.memoryStateTime::IDLE   9591866000                       # Time in different power states
system.mem_ctrl.rank0.memoryStateTime::REF    363220000                       # Time in different power states
system.mem_ctrl.rank0.memoryStateTime::SREF            0                       # Time in different power states
system.mem_ctrl.rank0.memoryStateTime::PRE_PDN            0                       # Time in different power states
system.mem_ctrl.rank0.memoryStateTime::ACT    927628000                       # Time in different power states
system.mem_ctrl.rank0.memoryStateTime::ACT_PDN            0                       # Time in different power states

---------- End Simulation Statistics   ----------
