cc -o lfsr lfsr.c -std=gnu11 -O3 -Wall -Wextra -Wpedantic -Wstrict-aliasing -static
cc -o merge merge.c -std=gnu11 -O3 -Wall -Wextra -Wpedantic -Wstrict-aliasing -static
cc -o mm mm.c -std=gnu11 -O3 -Wall -Wextra -Wpedantic -Wstrict-aliasing -static
cc -o sieve sieve.c -std=gnu11 -O3 -Wall -Wextra -Wpedantic -Wstrict-aliasing -static
cc -o spmv spmv.c -std=gnu11 -O3 -Wall -Wextra -Wpedantic -Wstrict-aliasing -static
gem5 Simulator System.  http://gem5.org
gem5 is copyrighted software; use the --copyright option for details.

gem5 compiled Jan 29 2020 17:17:17
gem5 started Jan 30 2020 10:34:06
gem5 executing on tetracosa.cs.ucla.edu, pid 119053
command line: build/X86/gem5.opt --outdir default/lfsr simple.py --benchmark lfsr

Global frequency set at 1000000000000 ticks per second
warn: DRAM device capacity (8192 Mbytes) does not match the address range assigned (512 Mbytes)
0: system.remote_gdb: listening for remote gdb on port 7000
Beginning simulation with parameters Namespace(CPU='DerivO3CPU', benchmark='lfsr', frequency='1GHz', memctrl='DDR3_1600_8x8', nol2=False)
info: Entering event queue @ 0.  Starting simulation...
Done simulating at tick 12136046000 because exiting with last active thread context
gem5 Simulator System.  http://gem5.org
gem5 is copyrighted software; use the --copyright option for details.

gem5 compiled Jan 29 2020 17:17:17
gem5 started Jan 30 2020 10:34:45
gem5 executing on tetracosa.cs.ucla.edu, pid 119142
command line: build/X86/gem5.opt --outdir default/merge simple.py --benchmark merge

Global frequency set at 1000000000000 ticks per second
warn: DRAM device capacity (8192 Mbytes) does not match the address range assigned (512 Mbytes)
0: system.remote_gdb: listening for remote gdb on port 7000
Beginning simulation with parameters Namespace(CPU='DerivO3CPU', benchmark='merge', frequency='1GHz', memctrl='DDR3_1600_8x8', nol2=False)
info: Entering event queue @ 0.  Starting simulation...
Done simulating at tick 2519581000 because exiting with last active thread context
gem5 Simulator System.  http://gem5.org
gem5 is copyrighted software; use the --copyright option for details.

gem5 compiled Jan 29 2020 17:17:17
gem5 started Jan 30 2020 10:35:03
gem5 executing on tetracosa.cs.ucla.edu, pid 119182
command line: build/X86/gem5.opt --outdir default/mm simple.py --benchmark mm

Global frequency set at 1000000000000 ticks per second
warn: DRAM device capacity (8192 Mbytes) does not match the address range assigned (512 Mbytes)
0: system.remote_gdb: listening for remote gdb on port 7000
Beginning simulation with parameters Namespace(CPU='DerivO3CPU', benchmark='mm', frequency='1GHz', memctrl='DDR3_1600_8x8', nol2=False)
info: Entering event queue @ 0.  Starting simulation...
Done simulating at tick 6956845000 because exiting with last active thread context
gem5 Simulator System.  http://gem5.org
gem5 is copyrighted software; use the --copyright option for details.

gem5 compiled Jan 29 2020 17:17:17
gem5 started Jan 30 2020 10:36:08
gem5 executing on tetracosa.cs.ucla.edu, pid 119352
command line: build/X86/gem5.opt --outdir default/sieve simple.py --benchmark sieve

Global frequency set at 1000000000000 ticks per second
warn: DRAM device capacity (8192 Mbytes) does not match the address range assigned (512 Mbytes)
0: system.remote_gdb: listening for remote gdb on port 7000
Beginning simulation with parameters Namespace(CPU='DerivO3CPU', benchmark='sieve', frequency='1GHz', memctrl='DDR3_1600_8x8', nol2=False)
info: Entering event queue @ 0.  Starting simulation...
Done simulating at tick 24839168000 because exiting with last active thread context
gem5 Simulator System.  http://gem5.org
gem5 is copyrighted software; use the --copyright option for details.

gem5 compiled Jan 29 2020 17:17:17
gem5 started Jan 30 2020 10:37:12
gem5 executing on tetracosa.cs.ucla.edu, pid 119499
command line: build/X86/gem5.opt --outdir default/spmv simple.py --benchmark spmv

Global frequency set at 1000000000000 ticks per second
warn: DRAM device capacity (8192 Mbytes) does not match the address range assigned (512 Mbytes)
0: system.remote_gdb: listening for remote gdb on port 7000
Beginning simulation with parameters Namespace(CPU='DerivO3CPU', benchmark='spmv', frequency='1GHz', memctrl='DDR3_1600_8x8', nol2=False)
info: Entering event queue @ 0.  Starting simulation...
info: Increasing stack size by one page.
info: Increasing stack size by one page.
info: Increasing stack size by one page.
info: Increasing stack size by one page.
info: Increasing stack size by one page.
info: Increasing stack size by one page.
info: Increasing stack size by one page.
info: Increasing stack size by one page.
Done simulating at tick 15709669000 because exiting with last active thread context
