
---------- Begin Simulation Statistics ----------
final_tick                                 2634413000                       # Number of ticks from beginning of simulation (restored from checkpoints and never reset)
host_inst_rate                                 178050                       # Simulator instruction rate (inst/s)
host_mem_usage                                 794744                       # Number of bytes of host memory used
host_op_rate                                   282107                       # Simulator op (including micro ops) rate (op/s)
host_seconds                                    17.49                       # Real time elapsed on the host
host_tick_rate                              150607377                       # Simulator tick rate (ticks/s)
sim_freq                                 1000000000000                       # Frequency of simulated ticks
sim_insts                                     3114406                       # Number of instructions simulated
sim_ops                                       4934595                       # Number of ops (including micro ops) simulated
sim_seconds                                  0.002634                       # Number of seconds simulated
sim_ticks                                  2634413000                       # Number of ticks simulated
system.cpu.branchPred.BTBCorrect                    0                       # Number of correct BTB predictions (this stat may not work properly.
system.cpu.branchPred.BTBHitPct              0.000000                       # BTB Hit Percentage
system.cpu.branchPred.BTBHits                       0                       # Number of BTB hits
system.cpu.branchPred.BTBLookups               784776                       # Number of BTB lookups
system.cpu.branchPred.RASInCorrect                  7                       # Number of incorrect RAS predictions.
system.cpu.branchPred.condIncorrect             95782                       # Number of conditional branches incorrect
system.cpu.branchPred.condPredicted            987718                       # Number of conditional branches predicted
system.cpu.branchPred.indirectHits             558827                       # Number of indirect target hits.
system.cpu.branchPred.indirectLookups          784776                       # Number of indirect predictor lookups.
system.cpu.branchPred.indirectMisses           225949                       # Number of indirect misses.
system.cpu.branchPred.lookups                 1073208                       # Number of BP lookups
system.cpu.branchPred.usedRAS                   44253                       # Number of times the RAS was used to get a target.
system.cpu.branchPredindirectMispredicted        25982                       # Number of mispredicted indirect branches.
system.cpu.cc_regfile_reads                   3018638                       # number of cc regfile reads
system.cpu.cc_regfile_writes                  2471728                       # number of cc regfile writes
system.cpu.commit.amos                              0                       # Number of atomic instructions committed
system.cpu.commit.branchMispredicts             95789                       # The number of times a branch was mispredicted
system.cpu.commit.branches                     575062                       # Number of branches committed
system.cpu.commit.bw_lim_events                328314                       # number cycles where commit BW limit reached
system.cpu.commit.commitNonSpecStalls               8                       # The number of times commit has been forced to stall to communicate backwards
system.cpu.commit.commitSquashedInsts         2273084                       # The number of squashed insts skipped by commit
system.cpu.commit.committedInsts              3114406                       # Number of instructions committed
system.cpu.commit.committedOps                4934595                       # Number of ops (including micro ops) committed
system.cpu.commit.committed_per_cycle::samples      2290233                       # Number of insts commited each cycle
system.cpu.commit.committed_per_cycle::mean     2.154626                       # Number of insts commited each cycle
system.cpu.commit.committed_per_cycle::stdev     2.809453                       # Number of insts commited each cycle
system.cpu.commit.committed_per_cycle::underflows            0      0.00%      0.00% # Number of insts commited each cycle
system.cpu.commit.committed_per_cycle::0       993072     43.36%     43.36% # Number of insts commited each cycle
system.cpu.commit.committed_per_cycle::1       363563     15.87%     59.24% # Number of insts commited each cycle
system.cpu.commit.committed_per_cycle::2       252313     11.02%     70.25% # Number of insts commited each cycle
system.cpu.commit.committed_per_cycle::3       132499      5.79%     76.04% # Number of insts commited each cycle
system.cpu.commit.committed_per_cycle::4       125947      5.50%     81.54% # Number of insts commited each cycle
system.cpu.commit.committed_per_cycle::5        42321      1.85%     83.39% # Number of insts commited each cycle
system.cpu.commit.committed_per_cycle::6        38424      1.68%     85.06% # Number of insts commited each cycle
system.cpu.commit.committed_per_cycle::7        13780      0.60%     85.66% # Number of insts commited each cycle
system.cpu.commit.committed_per_cycle::8       328314     14.34%    100.00% # Number of insts commited each cycle
system.cpu.commit.committed_per_cycle::overflows            0      0.00%    100.00% # Number of insts commited each cycle
system.cpu.commit.committed_per_cycle::min_value            0                       # Number of insts commited each cycle
system.cpu.commit.committed_per_cycle::max_value            8                       # Number of insts commited each cycle
system.cpu.commit.committed_per_cycle::total      2290233                       # Number of insts commited each cycle
system.cpu.commit.fp_insts                        302                       # Number of committed floating point instructions.
system.cpu.commit.function_calls                24662                       # Number of function calls committed.
system.cpu.commit.int_insts                   4934451                       # Number of committed integer instructions.
system.cpu.commit.loads                        440982                       # Number of loads committed
system.cpu.commit.membars                           0                       # Number of memory barriers committed
system.cpu.commit.op_class_0::No_OpClass           40      0.00%      0.00% # Class of committed instruction
system.cpu.commit.op_class_0::IntAlu          4148358     84.07%     84.07% # Class of committed instruction
system.cpu.commit.op_class_0::IntMult               5      0.00%     84.07% # Class of committed instruction
system.cpu.commit.op_class_0::IntDiv               21      0.00%     84.07% # Class of committed instruction
system.cpu.commit.op_class_0::FloatAdd              2      0.00%     84.07% # Class of committed instruction
system.cpu.commit.op_class_0::FloatCmp              0      0.00%     84.07% # Class of committed instruction
system.cpu.commit.op_class_0::FloatCvt              0      0.00%     84.07% # Class of committed instruction
system.cpu.commit.op_class_0::FloatMult             0      0.00%     84.07% # Class of committed instruction
system.cpu.commit.op_class_0::FloatMultAcc            0      0.00%     84.07% # Class of committed instruction
system.cpu.commit.op_class_0::FloatDiv              0      0.00%     84.07% # Class of committed instruction
system.cpu.commit.op_class_0::FloatMisc             0      0.00%     84.07% # Class of committed instruction
system.cpu.commit.op_class_0::FloatSqrt             0      0.00%     84.07% # Class of committed instruction
system.cpu.commit.op_class_0::SimdAdd               0      0.00%     84.07% # Class of committed instruction
system.cpu.commit.op_class_0::SimdAddAcc            0      0.00%     84.07% # Class of committed instruction
system.cpu.commit.op_class_0::SimdAlu              42      0.00%     84.07% # Class of committed instruction
system.cpu.commit.op_class_0::SimdCmp               0      0.00%     84.07% # Class of committed instruction
system.cpu.commit.op_class_0::SimdCvt              30      0.00%     84.07% # Class of committed instruction
system.cpu.commit.op_class_0::SimdMisc             44      0.00%     84.07% # Class of committed instruction
system.cpu.commit.op_class_0::SimdMult              0      0.00%     84.07% # Class of committed instruction
system.cpu.commit.op_class_0::SimdMultAcc            0      0.00%     84.07% # Class of committed instruction
system.cpu.commit.op_class_0::SimdShift             0      0.00%     84.07% # Class of committed instruction
system.cpu.commit.op_class_0::SimdShiftAcc            0      0.00%     84.07% # Class of committed instruction
system.cpu.commit.op_class_0::SimdDiv               0      0.00%     84.07% # Class of committed instruction
system.cpu.commit.op_class_0::SimdSqrt              0      0.00%     84.07% # Class of committed instruction
system.cpu.commit.op_class_0::SimdFloatAdd            0      0.00%     84.07% # Class of committed instruction
system.cpu.commit.op_class_0::SimdFloatAlu            0      0.00%     84.07% # Class of committed instruction
system.cpu.commit.op_class_0::SimdFloatCmp            0      0.00%     84.07% # Class of committed instruction
system.cpu.commit.op_class_0::SimdFloatCvt            0      0.00%     84.07% # Class of committed instruction
system.cpu.commit.op_class_0::SimdFloatDiv            0      0.00%     84.07% # Class of committed instruction
system.cpu.commit.op_class_0::SimdFloatMisc            0      0.00%     84.07% # Class of committed instruction
system.cpu.commit.op_class_0::SimdFloatMult            0      0.00%     84.07% # Class of committed instruction
system.cpu.commit.op_class_0::SimdFloatMultAcc            0      0.00%     84.07% # Class of committed instruction
system.cpu.commit.op_class_0::SimdFloatSqrt            0      0.00%     84.07% # Class of committed instruction
system.cpu.commit.op_class_0::SimdReduceAdd            0      0.00%     84.07% # Class of committed instruction
system.cpu.commit.op_class_0::SimdReduceAlu            0      0.00%     84.07% # Class of committed instruction
system.cpu.commit.op_class_0::SimdReduceCmp            0      0.00%     84.07% # Class of committed instruction
system.cpu.commit.op_class_0::SimdFloatReduceAdd            0      0.00%     84.07% # Class of committed instruction
system.cpu.commit.op_class_0::SimdFloatReduceCmp            0      0.00%     84.07% # Class of committed instruction
system.cpu.commit.op_class_0::SimdAes               0      0.00%     84.07% # Class of committed instruction
system.cpu.commit.op_class_0::SimdAesMix            0      0.00%     84.07% # Class of committed instruction
system.cpu.commit.op_class_0::SimdSha1Hash            0      0.00%     84.07% # Class of committed instruction
system.cpu.commit.op_class_0::SimdSha1Hash2            0      0.00%     84.07% # Class of committed instruction
system.cpu.commit.op_class_0::SimdSha256Hash            0      0.00%     84.07% # Class of committed instruction
system.cpu.commit.op_class_0::SimdSha256Hash2            0      0.00%     84.07% # Class of committed instruction
system.cpu.commit.op_class_0::SimdShaSigma2            0      0.00%     84.07% # Class of committed instruction
system.cpu.commit.op_class_0::SimdShaSigma3            0      0.00%     84.07% # Class of committed instruction
system.cpu.commit.op_class_0::SimdPredAlu            0      0.00%     84.07% # Class of committed instruction
system.cpu.commit.op_class_0::MemRead          440956      8.94%     93.01% # Class of committed instruction
system.cpu.commit.op_class_0::MemWrite         344919      6.99%    100.00% # Class of committed instruction
system.cpu.commit.op_class_0::FloatMemRead           26      0.00%    100.00% # Class of committed instruction
system.cpu.commit.op_class_0::FloatMemWrite          152      0.00%    100.00% # Class of committed instruction
system.cpu.commit.op_class_0::IprAccess             0      0.00%    100.00% # Class of committed instruction
system.cpu.commit.op_class_0::InstPrefetch            0      0.00%    100.00% # Class of committed instruction
system.cpu.commit.op_class_0::total           4934595                       # Class of committed instruction
system.cpu.commit.refs                         786053                       # Number of memory references committed
system.cpu.commit.swp_count                         0                       # Number of s/w prefetches committed
system.cpu.commit.vec_insts                         0                       # Number of committed Vector instructions.
system.cpu.committedInsts                     3114406                       # Number of Instructions Simulated
system.cpu.committedOps                       4934595                       # Number of Ops (including micro ops) Simulated
system.cpu.cpi                               0.845880                       # CPI: Cycles Per Instruction
system.cpu.cpi_total                         0.845880                       # CPI: Total CPI of All Threads
system.cpu.decode.BlockedCycles                266280                       # Number of cycles decode is blocked
system.cpu.decode.DecodedInsts                8549885                       # Number of instructions handled by decode
system.cpu.decode.IdleCycles                   863258                       # Number of cycles decode is idle
system.cpu.decode.RunCycles                   1312359                       # Number of cycles decode is running
system.cpu.decode.SquashCycles                  95801                       # Number of cycles decode is squashing
system.cpu.decode.UnblockCycles                 83980                       # Number of cycles decode is unblocking
system.cpu.dtb.rdAccesses                      538015                       # TLB accesses on read requests
system.cpu.dtb.rdMisses                            55                       # TLB misses on read requests
system.cpu.dtb.wrAccesses                      400817                       # TLB accesses on write requests
system.cpu.dtb.wrMisses                            19                       # TLB misses on write requests
system.cpu.fetch.Branches                     1073208                       # Number of branches that fetch encountered
system.cpu.fetch.CacheLines                    795919                       # Number of cache lines fetched
system.cpu.fetch.Cycles                       1680864                       # Number of cycles fetch has run and was not squashing or blocked
system.cpu.fetch.IcacheSquashes                 33523                       # Number of outstanding Icache misses that were squashed
system.cpu.fetch.Insts                        5583357                       # Number of instructions fetch has processed
system.cpu.fetch.MiscStallCycles                   12                       # Number of cycles fetch has spent waiting on interrupts, or bad addresses, or out of MSHRs
system.cpu.fetch.PendingQuiesceStallCycles           14                       # Number of stall cycles due to pending quiesce instructions
system.cpu.fetch.PendingTrapStallCycles            58                       # Number of stall cycles due to pending traps
system.cpu.fetch.SquashCycles                  191602                       # Number of cycles fetch has spent squashing
system.cpu.fetch.branchRate                  0.407380                       # Number of branch fetches per cycle
system.cpu.fetch.icacheStallCycles             844929                       # Number of cycles fetch is stalled on an Icache miss
system.cpu.fetch.predictedBranches             603080                       # Number of branches that fetch has predicted taken
system.cpu.fetch.rate                        2.119392                       # Number of inst fetches per cycle
system.cpu.fetch.rateDist::samples            2621678                       # Number of instructions fetched each cycle (Total)
system.cpu.fetch.rateDist::mean              3.389728                       # Number of instructions fetched each cycle (Total)
system.cpu.fetch.rateDist::stdev             3.366713                       # Number of instructions fetched each cycle (Total)
system.cpu.fetch.rateDist::underflows               0      0.00%      0.00% # Number of instructions fetched each cycle (Total)
system.cpu.fetch.rateDist::0                  1093312     41.70%     41.70% # Number of instructions fetched each cycle (Total)
system.cpu.fetch.rateDist::1                    20152      0.77%     42.47% # Number of instructions fetched each cycle (Total)
system.cpu.fetch.rateDist::2                    55647      2.12%     44.59% # Number of instructions fetched each cycle (Total)
system.cpu.fetch.rateDist::3                   303141     11.56%     56.16% # Number of instructions fetched each cycle (Total)
system.cpu.fetch.rateDist::4                   267097     10.19%     66.34% # Number of instructions fetched each cycle (Total)
system.cpu.fetch.rateDist::5                    55783      2.13%     68.47% # Number of instructions fetched each cycle (Total)
system.cpu.fetch.rateDist::6                     4111      0.16%     68.63% # Number of instructions fetched each cycle (Total)
system.cpu.fetch.rateDist::7                   105543      4.03%     72.66% # Number of instructions fetched each cycle (Total)
system.cpu.fetch.rateDist::8                   716892     27.34%    100.00% # Number of instructions fetched each cycle (Total)
system.cpu.fetch.rateDist::overflows                0      0.00%    100.00% # Number of instructions fetched each cycle (Total)
system.cpu.fetch.rateDist::min_value                0                       # Number of instructions fetched each cycle (Total)
system.cpu.fetch.rateDist::max_value                8                       # Number of instructions fetched each cycle (Total)
system.cpu.fetch.rateDist::total              2621678                       # Number of instructions fetched each cycle (Total)
system.cpu.fp_regfile_reads                       526                       # number of floating regfile reads
system.cpu.fp_regfile_writes                      182                       # number of floating regfile writes
system.cpu.idleCycles                           12736                       # Total number of cycles that the CPU has spent unscheduled due to idling
system.cpu.iew.branchMispredicts               110481                       # Number of branch mispredicts detected at execute
system.cpu.iew.exec_branches                   743087                       # Number of branches executed
system.cpu.iew.exec_nop                             0                       # number of nop insts executed
system.cpu.iew.exec_rate                     2.454870                       # Inst execution rate
system.cpu.iew.exec_refs                       938833                       # number of memory reference insts executed
system.cpu.iew.exec_stores                     400816                       # Number of stores executed
system.cpu.iew.exec_swp                             0                       # number of swp insts executed
system.cpu.iew.iewBlockCycles                  236737                       # Number of cycles IEW is blocking
system.cpu.iew.iewDispLoadInsts                627860                       # Number of dispatched load instructions
system.cpu.iew.iewDispNonSpecInsts                 38                       # Number of dispatched non-speculative instructions
system.cpu.iew.iewDispSquashedInsts             10414                       # Number of squashed instructions skipped by dispatch
system.cpu.iew.iewDispStoreInsts               474371                       # Number of dispatched store instructions
system.cpu.iew.iewDispatchedInsts             7207680                       # Number of instructions dispatched to IQ
system.cpu.iew.iewExecLoadInsts                538017                       # Number of load instructions executed
system.cpu.iew.iewExecSquashedInsts            254923                       # Number of squashed instructions skipped in execute
system.cpu.iew.iewExecutedInsts               6467144                       # Number of executed instructions
system.cpu.iew.iewIQFullEvents                      4                       # Number of times the IQ has become full, causing a stall
system.cpu.iew.iewIdleCycles                        0                       # Number of cycles IEW is idle
system.cpu.iew.iewLSQFullEvents                   838                       # Number of times the LSQ has become full, causing a stall
system.cpu.iew.iewSquashCycles                  95801                       # Number of cycles IEW is squashing
system.cpu.iew.iewUnblockCycles                   869                       # Number of cycles IEW is unblocking
system.cpu.iew.lsq.thread0.blockedLoads             0                       # Number of blocked loads due to partial load-store forwarding
system.cpu.iew.lsq.thread0.cacheBlocked             2                       # Number of times an access to memory failed due to the cache being blocked
system.cpu.iew.lsq.thread0.forwLoads            46217                       # Number of loads that had data forwarded from stores
system.cpu.iew.lsq.thread0.ignoredResponses            8                       # Number of memory responses ignored because the instruction is squashed
system.cpu.iew.lsq.thread0.invAddrLoads             0                       # Number of loads ignored due to an invalid address
system.cpu.iew.lsq.thread0.invAddrSwpfs             0                       # Number of software prefetches ignored due to an invalid address
system.cpu.iew.lsq.thread0.memOrderViolation           13                       # Number of memory ordering violations
system.cpu.iew.lsq.thread0.rescheduledLoads            1                       # Number of loads that were rescheduled
system.cpu.iew.lsq.thread0.squashedLoads       186878                       # Number of loads squashed
system.cpu.iew.lsq.thread0.squashedStores       129300                       # Number of stores squashed
system.cpu.iew.memOrderViolationEvents             13                       # Number of memory order violations
system.cpu.iew.predictedNotTakenIncorrect        67243                       # Number of branches that were predicted not taken incorrectly
system.cpu.iew.predictedTakenIncorrect          43238                       # Number of branches that were predicted taken incorrectly
system.cpu.iew.wb_consumers                   6471743                       # num instructions consuming a value
system.cpu.iew.wb_count                       6389053                       # cumulative count of insts written-back
system.cpu.iew.wb_fanout                     0.751665                       # average fanout of values written-back
system.cpu.iew.wb_producers                   4864583                       # num instructions producing a value
system.cpu.iew.wb_rate                       2.425227                       # insts written-back per cycle
system.cpu.iew.wb_sent                        6405846                       # cumulative count of insts sent to commit
system.cpu.int_regfile_reads                  9132376                       # number of integer regfile reads
system.cpu.int_regfile_writes                 5261530                       # number of integer regfile writes
system.cpu.ipc                               1.182201                       # IPC: Instructions Per Cycle
system.cpu.ipc_total                         1.182201                       # IPC: Total IPC of All Threads
system.cpu.iq.FU_type_0::No_OpClass               284      0.00%      0.00% # Type of FU issued
system.cpu.iq.FU_type_0::IntAlu               5736419     85.34%     85.34% # Type of FU issued
system.cpu.iq.FU_type_0::IntMult                    5      0.00%     85.34% # Type of FU issued
system.cpu.iq.FU_type_0::IntDiv                    22      0.00%     85.34% # Type of FU issued
system.cpu.iq.FU_type_0::FloatAdd                   2      0.00%     85.34% # Type of FU issued
system.cpu.iq.FU_type_0::FloatCmp                   0      0.00%     85.34% # Type of FU issued
system.cpu.iq.FU_type_0::FloatCvt                   0      0.00%     85.34% # Type of FU issued
system.cpu.iq.FU_type_0::FloatMult                  0      0.00%     85.34% # Type of FU issued
system.cpu.iq.FU_type_0::FloatMultAcc               0      0.00%     85.34% # Type of FU issued
system.cpu.iq.FU_type_0::FloatDiv                   0      0.00%     85.34% # Type of FU issued
system.cpu.iq.FU_type_0::FloatMisc                  0      0.00%     85.34% # Type of FU issued
system.cpu.iq.FU_type_0::FloatSqrt                  0      0.00%     85.34% # Type of FU issued
system.cpu.iq.FU_type_0::SimdAdd                    0      0.00%     85.34% # Type of FU issued
system.cpu.iq.FU_type_0::SimdAddAcc                 0      0.00%     85.34% # Type of FU issued
system.cpu.iq.FU_type_0::SimdAlu                   71      0.00%     85.34% # Type of FU issued
system.cpu.iq.FU_type_0::SimdCmp                    0      0.00%     85.34% # Type of FU issued
system.cpu.iq.FU_type_0::SimdCvt                   51      0.00%     85.34% # Type of FU issued
system.cpu.iq.FU_type_0::SimdMisc                  64      0.00%     85.34% # Type of FU issued
system.cpu.iq.FU_type_0::SimdMult                   0      0.00%     85.34% # Type of FU issued
system.cpu.iq.FU_type_0::SimdMultAcc                0      0.00%     85.34% # Type of FU issued
system.cpu.iq.FU_type_0::SimdShift                  0      0.00%     85.34% # Type of FU issued
system.cpu.iq.FU_type_0::SimdShiftAcc               0      0.00%     85.34% # Type of FU issued
system.cpu.iq.FU_type_0::SimdDiv                    0      0.00%     85.34% # Type of FU issued
system.cpu.iq.FU_type_0::SimdSqrt                   0      0.00%     85.34% # Type of FU issued
system.cpu.iq.FU_type_0::SimdFloatAdd               0      0.00%     85.34% # Type of FU issued
system.cpu.iq.FU_type_0::SimdFloatAlu               0      0.00%     85.34% # Type of FU issued
system.cpu.iq.FU_type_0::SimdFloatCmp               0      0.00%     85.34% # Type of FU issued
system.cpu.iq.FU_type_0::SimdFloatCvt               0      0.00%     85.34% # Type of FU issued
system.cpu.iq.FU_type_0::SimdFloatDiv               0      0.00%     85.34% # Type of FU issued
system.cpu.iq.FU_type_0::SimdFloatMisc              0      0.00%     85.34% # Type of FU issued
system.cpu.iq.FU_type_0::SimdFloatMult              0      0.00%     85.34% # Type of FU issued
system.cpu.iq.FU_type_0::SimdFloatMultAcc            0      0.00%     85.34% # Type of FU issued
system.cpu.iq.FU_type_0::SimdFloatSqrt              0      0.00%     85.34% # Type of FU issued
system.cpu.iq.FU_type_0::SimdReduceAdd              0      0.00%     85.34% # Type of FU issued
system.cpu.iq.FU_type_0::SimdReduceAlu              0      0.00%     85.34% # Type of FU issued
system.cpu.iq.FU_type_0::SimdReduceCmp              0      0.00%     85.34% # Type of FU issued
system.cpu.iq.FU_type_0::SimdFloatReduceAdd            0      0.00%     85.34% # Type of FU issued
system.cpu.iq.FU_type_0::SimdFloatReduceCmp            0      0.00%     85.34% # Type of FU issued
system.cpu.iq.FU_type_0::SimdAes                    0      0.00%     85.34% # Type of FU issued
system.cpu.iq.FU_type_0::SimdAesMix                 0      0.00%     85.34% # Type of FU issued
system.cpu.iq.FU_type_0::SimdSha1Hash               0      0.00%     85.34% # Type of FU issued
system.cpu.iq.FU_type_0::SimdSha1Hash2              0      0.00%     85.34% # Type of FU issued
system.cpu.iq.FU_type_0::SimdSha256Hash             0      0.00%     85.34% # Type of FU issued
system.cpu.iq.FU_type_0::SimdSha256Hash2            0      0.00%     85.34% # Type of FU issued
system.cpu.iq.FU_type_0::SimdShaSigma2              0      0.00%     85.34% # Type of FU issued
system.cpu.iq.FU_type_0::SimdShaSigma3              0      0.00%     85.34% # Type of FU issued
system.cpu.iq.FU_type_0::SimdPredAlu                0      0.00%     85.34% # Type of FU issued
system.cpu.iq.FU_type_0::MemRead               576806      8.58%     93.93% # Type of FU issued
system.cpu.iq.FU_type_0::MemWrite              408124      6.07%    100.00% # Type of FU issued
system.cpu.iq.FU_type_0::FloatMemRead              66      0.00%    100.00% # Type of FU issued
system.cpu.iq.FU_type_0::FloatMemWrite            153      0.00%    100.00% # Type of FU issued
system.cpu.iq.FU_type_0::IprAccess                  0      0.00%    100.00% # Type of FU issued
system.cpu.iq.FU_type_0::InstPrefetch               0      0.00%    100.00% # Type of FU issued
system.cpu.iq.FU_type_0::total                6722067                       # Type of FU issued
system.cpu.iq.fp_alu_accesses                     429                       # Number of floating point alu accesses
system.cpu.iq.fp_inst_queue_reads                 853                       # Number of floating instruction queue reads
system.cpu.iq.fp_inst_queue_wakeup_accesses          385                       # Number of floating instruction queue wakeup accesses
system.cpu.iq.fp_inst_queue_writes                728                       # Number of floating instruction queue writes
system.cpu.iq.fu_busy_cnt                      172555                       # FU busy when requested
system.cpu.iq.fu_busy_rate                   0.025670                       # FU busy rate (busy events/executed inst)
system.cpu.iq.fu_full::No_OpClass                   0      0.00%      0.00% # attempts to use FU when none available
system.cpu.iq.fu_full::IntAlu                  172531     99.99%     99.99% # attempts to use FU when none available
system.cpu.iq.fu_full::IntMult                      0      0.00%     99.99% # attempts to use FU when none available
system.cpu.iq.fu_full::IntDiv                       0      0.00%     99.99% # attempts to use FU when none available
system.cpu.iq.fu_full::FloatAdd                     0      0.00%     99.99% # attempts to use FU when none available
system.cpu.iq.fu_full::FloatCmp                     0      0.00%     99.99% # attempts to use FU when none available
system.cpu.iq.fu_full::FloatCvt                     0      0.00%     99.99% # attempts to use FU when none available
system.cpu.iq.fu_full::FloatMult                    0      0.00%     99.99% # attempts to use FU when none available
system.cpu.iq.fu_full::FloatMultAcc                 0      0.00%     99.99% # attempts to use FU when none available
system.cpu.iq.fu_full::FloatDiv                     0      0.00%     99.99% # attempts to use FU when none available
system.cpu.iq.fu_full::FloatMisc                    0      0.00%     99.99% # attempts to use FU when none available
system.cpu.iq.fu_full::FloatSqrt                    0      0.00%     99.99% # attempts to use FU when none available
system.cpu.iq.fu_full::SimdAdd                      0      0.00%     99.99% # attempts to use FU when none available
system.cpu.iq.fu_full::SimdAddAcc                   0      0.00%     99.99% # attempts to use FU when none available
system.cpu.iq.fu_full::SimdAlu                      7      0.00%     99.99% # attempts to use FU when none available
system.cpu.iq.fu_full::SimdCmp                      0      0.00%     99.99% # attempts to use FU when none available
system.cpu.iq.fu_full::SimdCvt                      0      0.00%     99.99% # attempts to use FU when none available
system.cpu.iq.fu_full::SimdMisc                     0      0.00%     99.99% # attempts to use FU when none available
system.cpu.iq.fu_full::SimdMult                     0      0.00%     99.99% # attempts to use FU when none available
system.cpu.iq.fu_full::SimdMultAcc                  0      0.00%     99.99% # attempts to use FU when none available
system.cpu.iq.fu_full::SimdShift                    0      0.00%     99.99% # attempts to use FU when none available
system.cpu.iq.fu_full::SimdShiftAcc                 0      0.00%     99.99% # attempts to use FU when none available
system.cpu.iq.fu_full::SimdDiv                      0      0.00%     99.99% # attempts to use FU when none available
system.cpu.iq.fu_full::SimdSqrt                     0      0.00%     99.99% # attempts to use FU when none available
system.cpu.iq.fu_full::SimdFloatAdd                 0      0.00%     99.99% # attempts to use FU when none available
system.cpu.iq.fu_full::SimdFloatAlu                 0      0.00%     99.99% # attempts to use FU when none available
system.cpu.iq.fu_full::SimdFloatCmp                 0      0.00%     99.99% # attempts to use FU when none available
system.cpu.iq.fu_full::SimdFloatCvt                 0      0.00%     99.99% # attempts to use FU when none available
system.cpu.iq.fu_full::SimdFloatDiv                 0      0.00%     99.99% # attempts to use FU when none available
system.cpu.iq.fu_full::SimdFloatMisc                0      0.00%     99.99% # attempts to use FU when none available
system.cpu.iq.fu_full::SimdFloatMult                0      0.00%     99.99% # attempts to use FU when none available
system.cpu.iq.fu_full::SimdFloatMultAcc             0      0.00%     99.99% # attempts to use FU when none available
system.cpu.iq.fu_full::SimdFloatSqrt                0      0.00%     99.99% # attempts to use FU when none available
system.cpu.iq.fu_full::SimdReduceAdd                0      0.00%     99.99% # attempts to use FU when none available
system.cpu.iq.fu_full::SimdReduceAlu                0      0.00%     99.99% # attempts to use FU when none available
system.cpu.iq.fu_full::SimdReduceCmp                0      0.00%     99.99% # attempts to use FU when none available
system.cpu.iq.fu_full::SimdFloatReduceAdd            0      0.00%     99.99% # attempts to use FU when none available
system.cpu.iq.fu_full::SimdFloatReduceCmp            0      0.00%     99.99% # attempts to use FU when none available
system.cpu.iq.fu_full::SimdAes                      0      0.00%     99.99% # attempts to use FU when none available
system.cpu.iq.fu_full::SimdAesMix                   0      0.00%     99.99% # attempts to use FU when none available
system.cpu.iq.fu_full::SimdSha1Hash                 0      0.00%     99.99% # attempts to use FU when none available
system.cpu.iq.fu_full::SimdSha1Hash2                0      0.00%     99.99% # attempts to use FU when none available
system.cpu.iq.fu_full::SimdSha256Hash               0      0.00%     99.99% # attempts to use FU when none available
system.cpu.iq.fu_full::SimdSha256Hash2              0      0.00%     99.99% # attempts to use FU when none available
system.cpu.iq.fu_full::SimdShaSigma2                0      0.00%     99.99% # attempts to use FU when none available
system.cpu.iq.fu_full::SimdShaSigma3                0      0.00%     99.99% # attempts to use FU when none available
system.cpu.iq.fu_full::SimdPredAlu                  0      0.00%     99.99% # attempts to use FU when none available
system.cpu.iq.fu_full::MemRead                      8      0.00%     99.99% # attempts to use FU when none available
system.cpu.iq.fu_full::MemWrite                     4      0.00%    100.00% # attempts to use FU when none available
system.cpu.iq.fu_full::FloatMemRead                 1      0.00%    100.00% # attempts to use FU when none available
system.cpu.iq.fu_full::FloatMemWrite                4      0.00%    100.00% # attempts to use FU when none available
system.cpu.iq.fu_full::IprAccess                    0      0.00%    100.00% # attempts to use FU when none available
system.cpu.iq.fu_full::InstPrefetch                 0      0.00%    100.00% # attempts to use FU when none available
system.cpu.iq.int_alu_accesses                6893909                       # Number of integer alu accesses
system.cpu.iq.int_inst_queue_reads           16267056                       # Number of integer instruction queue reads
system.cpu.iq.int_inst_queue_wakeup_accesses      6388668                       # Number of integer instruction queue wakeup accesses
system.cpu.iq.int_inst_queue_writes           9480049                       # Number of integer instruction queue writes
system.cpu.iq.iqInstsAdded                    7207594                       # Number of instructions added to the IQ (excludes non-spec)
system.cpu.iq.iqInstsIssued                   6722067                       # Number of instructions issued
system.cpu.iq.iqNonSpecInstsAdded                  86                       # Number of non-speculative instructions added to the IQ
system.cpu.iq.iqSquashedInstsExamined         2273084                       # Number of squashed instructions iterated over during squash; mainly for profiling
system.cpu.iq.iqSquashedInstsIssued             29542                       # Number of squashed instructions issued
system.cpu.iq.iqSquashedNonSpecRemoved             78                       # Number of squashed non-spec instructions that were removed
system.cpu.iq.iqSquashedOperandsExamined      2014432                       # Number of squashed operands that are examined and possibly removed from graph
system.cpu.iq.issued_per_cycle::samples       2621678                       # Number of insts issued each cycle
system.cpu.iq.issued_per_cycle::mean         2.564032                       # Number of insts issued each cycle
system.cpu.iq.issued_per_cycle::stdev        2.288030                       # Number of insts issued each cycle
system.cpu.iq.issued_per_cycle::underflows            0      0.00%      0.00% # Number of insts issued each cycle
system.cpu.iq.issued_per_cycle::0              875769     33.40%     33.40% # Number of insts issued each cycle
system.cpu.iq.issued_per_cycle::1               35933      1.37%     34.78% # Number of insts issued each cycle
system.cpu.iq.issued_per_cycle::2              502027     19.15%     53.92% # Number of insts issued each cycle
system.cpu.iq.issued_per_cycle::3              320411     12.22%     66.15% # Number of insts issued each cycle
system.cpu.iq.issued_per_cycle::4              226607      8.64%     74.79% # Number of insts issued each cycle
system.cpu.iq.issued_per_cycle::5              279841     10.67%     85.46% # Number of insts issued each cycle
system.cpu.iq.issued_per_cycle::6              261823      9.99%     95.45% # Number of insts issued each cycle
system.cpu.iq.issued_per_cycle::7              109860      4.19%     99.64% # Number of insts issued each cycle
system.cpu.iq.issued_per_cycle::8                9407      0.36%    100.00% # Number of insts issued each cycle
system.cpu.iq.issued_per_cycle::overflows            0      0.00%    100.00% # Number of insts issued each cycle
system.cpu.iq.issued_per_cycle::min_value            0                       # Number of insts issued each cycle
system.cpu.iq.issued_per_cycle::max_value            8                       # Number of insts issued each cycle
system.cpu.iq.issued_per_cycle::total         2621678                       # Number of insts issued each cycle
system.cpu.iq.rate                           2.551637                       # Inst issue rate
system.cpu.iq.vec_alu_accesses                      0                       # Number of vector alu accesses
system.cpu.iq.vec_inst_queue_reads                  0                       # Number of vector instruction queue reads
system.cpu.iq.vec_inst_queue_wakeup_accesses            0                       # Number of vector instruction queue wakeup accesses
system.cpu.iq.vec_inst_queue_writes                 0                       # Number of vector instruction queue writes
system.cpu.itb.rdAccesses                           0                       # TLB accesses on read requests
system.cpu.itb.rdMisses                             0                       # TLB misses on read requests
system.cpu.itb.wrAccesses                      795931                       # TLB accesses on write requests
system.cpu.itb.wrMisses                            42                       # TLB misses on write requests
system.cpu.memDep0.conflictingLoads             28152                       # Number of conflicting loads.
system.cpu.memDep0.conflictingStores            35420                       # Number of conflicting stores.
system.cpu.memDep0.insertedLoads               627860                       # Number of loads inserted to the mem dependence unit.
system.cpu.memDep0.insertedStores              474371                       # Number of stores inserted to the mem dependence unit.
system.cpu.misc_regfile_reads                 2440360                       # number of misc regfile reads
system.cpu.misc_regfile_writes                      1                       # number of misc regfile writes
system.cpu.numCycles                          2634414                       # number of cpu cycles simulated
system.cpu.numWorkItemsCompleted                    0                       # number of work items this cpu completed
system.cpu.numWorkItemsStarted                      0                       # number of work items this cpu started
system.cpu.rename.BlockCycles                  259147                       # Number of cycles rename is blocking
system.cpu.rename.CommittedMaps               5910595                       # Number of HB maps that are committed
system.cpu.rename.IQFullEvents                    462                       # Number of times rename has blocked due to IQ full
system.cpu.rename.IdleCycles                   926060                       # Number of cycles rename is idle
system.cpu.rename.ROBFullEvents                  1537                       # Number of times rename has blocked due to ROB full
system.cpu.rename.RenameLookups              18808747                       # Number of register rename lookups that rename has made
system.cpu.rename.RenamedInsts                8164315                       # Number of instructions processed by rename
system.cpu.rename.RenamedOperands             9765699                       # Number of destination operands rename has renamed
system.cpu.rename.RunCycles                   1319005                       # Number of cycles rename is running
system.cpu.rename.SQFullEvents                   4464                       # Number of times rename has blocked due to SQ full
system.cpu.rename.SquashCycles                  95801                       # Number of cycles rename is squashing
system.cpu.rename.UnblockCycles                 20619                       # Number of cycles rename is unblocking
system.cpu.rename.UndoneMaps                  3855104                       # Number of HB maps that are undone due to squashing
system.cpu.rename.fp_rename_lookups               801                       # Number of floating rename lookups
system.cpu.rename.int_rename_lookups         11731809                       # Number of integer rename lookups
system.cpu.rename.serializeStallCycles           1046                       # count of cycles rename stalled for serializing inst
system.cpu.rename.serializingInsts                 22                       # count of serializing insts renamed
system.cpu.rename.skidInsts                    108953                       # count of insts added to the skid buffer
system.cpu.rename.tempSerializingInsts             15                       # count of temporary serializing insts renamed
system.cpu.rob.rob_reads                      9169598                       # The number of ROB reads
system.cpu.rob.rob_writes                    14750810                       # The number of ROB writes
system.cpu.timesIdled                             177                       # Number of times that the entire CPU went into an idle state and unscheduled itself
system.cpu.workload.numSyscalls                     7                       # Number of system calls
system.l2bus.snoop_filter.hit_multi_requests            0                       # Number of requests hitting in the snoop filter with multiple (>1) holders of the requested data.
system.l2bus.snoop_filter.hit_multi_snoops            0                       # Number of snoops hitting in the snoop filter with multiple (>1) holders of the requested data.
system.l2bus.snoop_filter.hit_single_requests           11                       # Number of requests hitting in the snoop filter with a single holder of the requested data.
system.l2bus.snoop_filter.hit_single_snoops            0                       # Number of snoops hitting in the snoop filter with a single holder of the requested data.
system.l2bus.snoop_filter.tot_requests           1520                       # Total number of requests made to the snoop filter.
system.l2bus.snoop_filter.tot_snoops                0                       # Total number of snoops made to the snoop filter.
system.membus.snoop_filter.hit_multi_requests            0                       # Number of requests hitting in the snoop filter with multiple (>1) holders of the requested data.
system.membus.snoop_filter.hit_multi_snoops            0                       # Number of snoops hitting in the snoop filter with multiple (>1) holders of the requested data.
system.membus.snoop_filter.hit_single_requests            0                       # Number of requests hitting in the snoop filter with a single holder of the requested data.
system.membus.snoop_filter.hit_single_snoops            0                       # Number of snoops hitting in the snoop filter with a single holder of the requested data.
system.membus.snoop_filter.tot_requests          1506                       # Total number of requests made to the snoop filter.
system.membus.snoop_filter.tot_snoops               0                       # Total number of snoops made to the snoop filter.
system.membus.pwrStateResidencyTicks::UNDEFINED   2634413000                       # Cumulative time (in ticks) in various power states
system.membus.trans_dist::ReadResp                904                       # Transaction distribution
system.membus.trans_dist::ReadExReq               602                       # Transaction distribution
system.membus.trans_dist::ReadExResp              602                       # Transaction distribution
system.membus.trans_dist::ReadSharedReq           904                       # Transaction distribution
system.membus.pkt_count_system.l2cache.mem_side::system.mem_ctrl.port         3012                       # Packet count per connected master and slave (bytes)
system.membus.pkt_count_system.l2cache.mem_side::total         3012                       # Packet count per connected master and slave (bytes)
system.membus.pkt_count::total                   3012                       # Packet count per connected master and slave (bytes)
system.membus.pkt_size_system.l2cache.mem_side::system.mem_ctrl.port        96384                       # Cumulative packet size per connected master and slave (bytes)
system.membus.pkt_size_system.l2cache.mem_side::total        96384                       # Cumulative packet size per connected master and slave (bytes)
system.membus.pkt_size::total                   96384                       # Cumulative packet size per connected master and slave (bytes)
system.membus.snoops                                0                       # Total snoops (count)
system.membus.snoopTraffic                          0                       # Total snoop traffic (bytes)
system.membus.snoop_fanout::samples              1506                       # Request fanout histogram
system.membus.snoop_fanout::mean                    0                       # Request fanout histogram
system.membus.snoop_fanout::stdev                   0                       # Request fanout histogram
system.membus.snoop_fanout::underflows              0      0.00%      0.00% # Request fanout histogram
system.membus.snoop_fanout::0                    1506    100.00%    100.00% # Request fanout histogram
system.membus.snoop_fanout::1                       0      0.00%    100.00% # Request fanout histogram
system.membus.snoop_fanout::overflows               0      0.00%    100.00% # Request fanout histogram
system.membus.snoop_fanout::min_value               0                       # Request fanout histogram
system.membus.snoop_fanout::max_value               0                       # Request fanout histogram
system.membus.snoop_fanout::total                1506                       # Request fanout histogram
system.membus.reqLayer2.occupancy             1506000                       # Layer occupancy (ticks)
system.membus.reqLayer2.utilization               0.1                       # Layer utilization (%)
system.membus.respLayer0.occupancy            8038750                       # Layer occupancy (ticks)
system.membus.respLayer0.utilization              0.3                       # Layer utilization (%)
system.l2bus.pwrStateResidencyTicks::UNDEFINED   2634413000                       # Cumulative time (in ticks) in various power states
system.l2bus.trans_dist::ReadResp                 906                       # Transaction distribution
system.l2bus.trans_dist::WritebackDirty             4                       # Transaction distribution
system.l2bus.trans_dist::CleanEvict                 6                       # Transaction distribution
system.l2bus.trans_dist::ReadExReq                603                       # Transaction distribution
system.l2bus.trans_dist::ReadExResp               603                       # Transaction distribution
system.l2bus.trans_dist::ReadSharedReq            907                       # Transaction distribution
system.l2bus.pkt_count_system.cpu.icache.mem_side::system.l2cache.cpu_side          631                       # Packet count per connected master and slave (bytes)
system.l2bus.pkt_count_system.cpu.dcache.mem_side::system.l2cache.cpu_side         2398                       # Packet count per connected master and slave (bytes)
system.l2bus.pkt_count::total                    3029                       # Packet count per connected master and slave (bytes)
system.l2bus.pkt_size_system.cpu.icache.mem_side::system.l2cache.cpu_side        20160                       # Cumulative packet size per connected master and slave (bytes)
system.l2bus.pkt_size_system.cpu.dcache.mem_side::system.l2cache.cpu_side        76672                       # Cumulative packet size per connected master and slave (bytes)
system.l2bus.pkt_size::total                    96832                       # Cumulative packet size per connected master and slave (bytes)
system.l2bus.snoops                                 0                       # Total snoops (count)
system.l2bus.snoopTraffic                           0                       # Total snoop traffic (bytes)
system.l2bus.snoop_fanout::samples               1510                       # Request fanout histogram
system.l2bus.snoop_fanout::mean              0.000662                       # Request fanout histogram
system.l2bus.snoop_fanout::stdev             0.025734                       # Request fanout histogram
system.l2bus.snoop_fanout::underflows               0      0.00%      0.00% # Request fanout histogram
system.l2bus.snoop_fanout::0                     1509     99.93%     99.93% # Request fanout histogram
system.l2bus.snoop_fanout::1                        1      0.07%    100.00% # Request fanout histogram
system.l2bus.snoop_fanout::2                        0      0.00%    100.00% # Request fanout histogram
system.l2bus.snoop_fanout::overflows                0      0.00%    100.00% # Request fanout histogram
system.l2bus.snoop_fanout::min_value                0                       # Request fanout histogram
system.l2bus.snoop_fanout::max_value                1                       # Request fanout histogram
system.l2bus.snoop_fanout::total                 1510                       # Request fanout histogram
system.l2bus.respLayer1.occupancy             3582000                       # Layer occupancy (ticks)
system.l2bus.respLayer1.utilization               0.1                       # Layer utilization (%)
system.l2bus.reqLayer0.occupancy              1528000                       # Layer occupancy (ticks)
system.l2bus.reqLayer0.utilization                0.1                       # Layer utilization (%)
system.l2bus.respLayer0.occupancy              945000                       # Layer occupancy (ticks)
system.l2bus.respLayer0.utilization               0.0                       # Layer utilization (%)
system.clk_domain.clock                          1000                       # Clock period in ticks
system.clk_domain.voltage_domain.voltage            1                       # Voltage in Volts
system.cpu.pwrStateResidencyTicks::ON      2634413000                       # Cumulative time (in ticks) in various power states
system.cpu.icache.pwrStateResidencyTicks::UNDEFINED   2634413000                       # Cumulative time (in ticks) in various power states
system.cpu.icache.demand_hits::.cpu.inst       795489                       # number of demand (read+write) hits
system.cpu.icache.demand_hits::total           795489                       # number of demand (read+write) hits
system.cpu.icache.overall_hits::.cpu.inst       795489                       # number of overall hits
system.cpu.icache.overall_hits::total          795489                       # number of overall hits
system.cpu.icache.demand_misses::.cpu.inst          430                       # number of demand (read+write) misses
system.cpu.icache.demand_misses::total            430                       # number of demand (read+write) misses
system.cpu.icache.overall_misses::.cpu.inst          430                       # number of overall misses
system.cpu.icache.overall_misses::total           430                       # number of overall misses
system.cpu.icache.demand_miss_latency::.cpu.inst     41179000                       # number of demand (read+write) miss cycles
system.cpu.icache.demand_miss_latency::total     41179000                       # number of demand (read+write) miss cycles
system.cpu.icache.overall_miss_latency::.cpu.inst     41179000                       # number of overall miss cycles
system.cpu.icache.overall_miss_latency::total     41179000                       # number of overall miss cycles
system.cpu.icache.demand_accesses::.cpu.inst       795919                       # number of demand (read+write) accesses
system.cpu.icache.demand_accesses::total       795919                       # number of demand (read+write) accesses
system.cpu.icache.overall_accesses::.cpu.inst       795919                       # number of overall (read+write) accesses
system.cpu.icache.overall_accesses::total       795919                       # number of overall (read+write) accesses
system.cpu.icache.demand_miss_rate::.cpu.inst     0.000540                       # miss rate for demand accesses
system.cpu.icache.demand_miss_rate::total     0.000540                       # miss rate for demand accesses
system.cpu.icache.overall_miss_rate::.cpu.inst     0.000540                       # miss rate for overall accesses
system.cpu.icache.overall_miss_rate::total     0.000540                       # miss rate for overall accesses
system.cpu.icache.demand_avg_miss_latency::.cpu.inst 95765.116279                       # average overall miss latency
system.cpu.icache.demand_avg_miss_latency::total 95765.116279                       # average overall miss latency
system.cpu.icache.overall_avg_miss_latency::.cpu.inst 95765.116279                       # average overall miss latency
system.cpu.icache.overall_avg_miss_latency::total 95765.116279                       # average overall miss latency
system.cpu.icache.blocked_cycles::no_mshrs          133                       # number of cycles access was blocked
system.cpu.icache.blocked_cycles::no_targets            0                       # number of cycles access was blocked
system.cpu.icache.blocked::no_mshrs                 5                       # number of cycles access was blocked
system.cpu.icache.blocked::no_targets               0                       # number of cycles access was blocked
system.cpu.icache.avg_blocked_cycles::no_mshrs    26.600000                       # average number of cycles each access was blocked
system.cpu.icache.avg_blocked_cycles::no_targets          nan                       # average number of cycles each access was blocked
system.cpu.icache.demand_mshr_hits::.cpu.inst          114                       # number of demand (read+write) MSHR hits
system.cpu.icache.demand_mshr_hits::total          114                       # number of demand (read+write) MSHR hits
system.cpu.icache.overall_mshr_hits::.cpu.inst          114                       # number of overall MSHR hits
system.cpu.icache.overall_mshr_hits::total          114                       # number of overall MSHR hits
system.cpu.icache.demand_mshr_misses::.cpu.inst          316                       # number of demand (read+write) MSHR misses
system.cpu.icache.demand_mshr_misses::total          316                       # number of demand (read+write) MSHR misses
system.cpu.icache.overall_mshr_misses::.cpu.inst          316                       # number of overall MSHR misses
system.cpu.icache.overall_mshr_misses::total          316                       # number of overall MSHR misses
system.cpu.icache.demand_mshr_miss_latency::.cpu.inst     32122000                       # number of demand (read+write) MSHR miss cycles
system.cpu.icache.demand_mshr_miss_latency::total     32122000                       # number of demand (read+write) MSHR miss cycles
system.cpu.icache.overall_mshr_miss_latency::.cpu.inst     32122000                       # number of overall MSHR miss cycles
system.cpu.icache.overall_mshr_miss_latency::total     32122000                       # number of overall MSHR miss cycles
system.cpu.icache.demand_mshr_miss_rate::.cpu.inst     0.000397                       # mshr miss rate for demand accesses
system.cpu.icache.demand_mshr_miss_rate::total     0.000397                       # mshr miss rate for demand accesses
system.cpu.icache.overall_mshr_miss_rate::.cpu.inst     0.000397                       # mshr miss rate for overall accesses
system.cpu.icache.overall_mshr_miss_rate::total     0.000397                       # mshr miss rate for overall accesses
system.cpu.icache.demand_avg_mshr_miss_latency::.cpu.inst 101651.898734                       # average overall mshr miss latency
system.cpu.icache.demand_avg_mshr_miss_latency::total 101651.898734                       # average overall mshr miss latency
system.cpu.icache.overall_avg_mshr_miss_latency::.cpu.inst 101651.898734                       # average overall mshr miss latency
system.cpu.icache.overall_avg_mshr_miss_latency::total 101651.898734                       # average overall mshr miss latency
system.cpu.icache.replacements                      0                       # number of replacements
system.cpu.icache.ReadReq_hits::.cpu.inst       795489                       # number of ReadReq hits
system.cpu.icache.ReadReq_hits::total          795489                       # number of ReadReq hits
system.cpu.icache.ReadReq_misses::.cpu.inst          430                       # number of ReadReq misses
system.cpu.icache.ReadReq_misses::total           430                       # number of ReadReq misses
system.cpu.icache.ReadReq_miss_latency::.cpu.inst     41179000                       # number of ReadReq miss cycles
system.cpu.icache.ReadReq_miss_latency::total     41179000                       # number of ReadReq miss cycles
system.cpu.icache.ReadReq_accesses::.cpu.inst       795919                       # number of ReadReq accesses(hits+misses)
system.cpu.icache.ReadReq_accesses::total       795919                       # number of ReadReq accesses(hits+misses)
system.cpu.icache.ReadReq_miss_rate::.cpu.inst     0.000540                       # miss rate for ReadReq accesses
system.cpu.icache.ReadReq_miss_rate::total     0.000540                       # miss rate for ReadReq accesses
system.cpu.icache.ReadReq_avg_miss_latency::.cpu.inst 95765.116279                       # average ReadReq miss latency
system.cpu.icache.ReadReq_avg_miss_latency::total 95765.116279                       # average ReadReq miss latency
system.cpu.icache.ReadReq_mshr_hits::.cpu.inst          114                       # number of ReadReq MSHR hits
system.cpu.icache.ReadReq_mshr_hits::total          114                       # number of ReadReq MSHR hits
system.cpu.icache.ReadReq_mshr_misses::.cpu.inst          316                       # number of ReadReq MSHR misses
system.cpu.icache.ReadReq_mshr_misses::total          316                       # number of ReadReq MSHR misses
system.cpu.icache.ReadReq_mshr_miss_latency::.cpu.inst     32122000                       # number of ReadReq MSHR miss cycles
system.cpu.icache.ReadReq_mshr_miss_latency::total     32122000                       # number of ReadReq MSHR miss cycles
system.cpu.icache.ReadReq_mshr_miss_rate::.cpu.inst     0.000397                       # mshr miss rate for ReadReq accesses
system.cpu.icache.ReadReq_mshr_miss_rate::total     0.000397                       # mshr miss rate for ReadReq accesses
system.cpu.icache.ReadReq_avg_mshr_miss_latency::.cpu.inst 101651.898734                       # average ReadReq mshr miss latency
system.cpu.icache.ReadReq_avg_mshr_miss_latency::total 101651.898734                       # average ReadReq mshr miss latency
system.cpu.icache.tags.pwrStateResidencyTicks::UNDEFINED   2634413000                       # Cumulative time (in ticks) in various power states
system.cpu.icache.tags.tagsinuse           292.257050                       # Cycle average of tags in use
system.cpu.icache.tags.total_refs              795804                       # Total number of references to valid blocks.
system.cpu.icache.tags.sampled_refs               315                       # Sample count of references to valid blocks.
system.cpu.icache.tags.avg_refs           2526.361905                       # Average number of references to valid blocks.
system.cpu.icache.tags.warmup_cycle            107000                       # Cycle when the warmup percentage was hit.
system.cpu.icache.tags.occ_blocks::.cpu.inst   292.257050                       # Average occupied blocks per requestor
system.cpu.icache.tags.occ_percent::.cpu.inst     0.142704                       # Average percentage of cache occupancy
system.cpu.icache.tags.occ_percent::total     0.142704                       # Average percentage of cache occupancy
system.cpu.icache.tags.occ_task_id_blocks::1024          315                       # Occupied blocks per task id
system.cpu.icache.tags.age_task_id_blocks_1024::0           21                       # Occupied blocks per task id
system.cpu.icache.tags.age_task_id_blocks_1024::3          294                       # Occupied blocks per task id
system.cpu.icache.tags.occ_task_id_percent::1024     0.153809                       # Percentage of cache occupancy per task id
system.cpu.icache.tags.tag_accesses           1592153                       # Number of tag accesses
system.cpu.icache.tags.data_accesses          1592153                       # Number of data accesses
system.cpu.dtb.walker.pwrStateResidencyTicks::UNDEFINED   2634413000                       # Cumulative time (in ticks) in various power states
system.cpu.interrupts.clk_domain.clock          16000                       # Clock period in ticks
system.cpu.itb.walker.pwrStateResidencyTicks::UNDEFINED   2634413000                       # Cumulative time (in ticks) in various power states
system.cpu.dcache.pwrStateResidencyTicks::UNDEFINED   2634413000                       # Cumulative time (in ticks) in various power states
system.cpu.dcache.demand_hits::.cpu.data       834574                       # number of demand (read+write) hits
system.cpu.dcache.demand_hits::total           834574                       # number of demand (read+write) hits
system.cpu.dcache.overall_hits::.cpu.data       834574                       # number of overall hits
system.cpu.dcache.overall_hits::total          834574                       # number of overall hits
system.cpu.dcache.demand_misses::.cpu.data         2257                       # number of demand (read+write) misses
system.cpu.dcache.demand_misses::total           2257                       # number of demand (read+write) misses
system.cpu.dcache.overall_misses::.cpu.data         2257                       # number of overall misses
system.cpu.dcache.overall_misses::total          2257                       # number of overall misses
system.cpu.dcache.demand_miss_latency::.cpu.data    214951000                       # number of demand (read+write) miss cycles
system.cpu.dcache.demand_miss_latency::total    214951000                       # number of demand (read+write) miss cycles
system.cpu.dcache.overall_miss_latency::.cpu.data    214951000                       # number of overall miss cycles
system.cpu.dcache.overall_miss_latency::total    214951000                       # number of overall miss cycles
system.cpu.dcache.demand_accesses::.cpu.data       836831                       # number of demand (read+write) accesses
system.cpu.dcache.demand_accesses::total       836831                       # number of demand (read+write) accesses
system.cpu.dcache.overall_accesses::.cpu.data       836831                       # number of overall (read+write) accesses
system.cpu.dcache.overall_accesses::total       836831                       # number of overall (read+write) accesses
system.cpu.dcache.demand_miss_rate::.cpu.data     0.002697                       # miss rate for demand accesses
system.cpu.dcache.demand_miss_rate::total     0.002697                       # miss rate for demand accesses
system.cpu.dcache.overall_miss_rate::.cpu.data     0.002697                       # miss rate for overall accesses
system.cpu.dcache.overall_miss_rate::total     0.002697                       # miss rate for overall accesses
system.cpu.dcache.demand_avg_miss_latency::.cpu.data 95237.483385                       # average overall miss latency
system.cpu.dcache.demand_avg_miss_latency::total 95237.483385                       # average overall miss latency
system.cpu.dcache.overall_avg_miss_latency::.cpu.data 95237.483385                       # average overall miss latency
system.cpu.dcache.overall_avg_miss_latency::total 95237.483385                       # average overall miss latency
system.cpu.dcache.blocked_cycles::no_mshrs           87                       # number of cycles access was blocked
system.cpu.dcache.blocked_cycles::no_targets            0                       # number of cycles access was blocked
system.cpu.dcache.blocked::no_mshrs                 4                       # number of cycles access was blocked
system.cpu.dcache.blocked::no_targets               0                       # number of cycles access was blocked
system.cpu.dcache.avg_blocked_cycles::no_mshrs    21.750000                       # average number of cycles each access was blocked
system.cpu.dcache.avg_blocked_cycles::no_targets          nan                       # average number of cycles each access was blocked
system.cpu.dcache.writebacks::.writebacks            4                       # number of writebacks
system.cpu.dcache.writebacks::total                 4                       # number of writebacks
system.cpu.dcache.demand_mshr_hits::.cpu.data         1063                       # number of demand (read+write) MSHR hits
system.cpu.dcache.demand_mshr_hits::total         1063                       # number of demand (read+write) MSHR hits
system.cpu.dcache.overall_mshr_hits::.cpu.data         1063                       # number of overall MSHR hits
system.cpu.dcache.overall_mshr_hits::total         1063                       # number of overall MSHR hits
system.cpu.dcache.demand_mshr_misses::.cpu.data         1194                       # number of demand (read+write) MSHR misses
system.cpu.dcache.demand_mshr_misses::total         1194                       # number of demand (read+write) MSHR misses
system.cpu.dcache.overall_mshr_misses::.cpu.data         1194                       # number of overall MSHR misses
system.cpu.dcache.overall_mshr_misses::total         1194                       # number of overall MSHR misses
system.cpu.dcache.demand_mshr_miss_latency::.cpu.data    122955000                       # number of demand (read+write) MSHR miss cycles
system.cpu.dcache.demand_mshr_miss_latency::total    122955000                       # number of demand (read+write) MSHR miss cycles
system.cpu.dcache.overall_mshr_miss_latency::.cpu.data    122955000                       # number of overall MSHR miss cycles
system.cpu.dcache.overall_mshr_miss_latency::total    122955000                       # number of overall MSHR miss cycles
system.cpu.dcache.demand_mshr_miss_rate::.cpu.data     0.001427                       # mshr miss rate for demand accesses
system.cpu.dcache.demand_mshr_miss_rate::total     0.001427                       # mshr miss rate for demand accesses
system.cpu.dcache.overall_mshr_miss_rate::.cpu.data     0.001427                       # mshr miss rate for overall accesses
system.cpu.dcache.overall_mshr_miss_rate::total     0.001427                       # mshr miss rate for overall accesses
system.cpu.dcache.demand_avg_mshr_miss_latency::.cpu.data 102977.386935                       # average overall mshr miss latency
system.cpu.dcache.demand_avg_mshr_miss_latency::total 102977.386935                       # average overall mshr miss latency
system.cpu.dcache.overall_avg_mshr_miss_latency::.cpu.data 102977.386935                       # average overall mshr miss latency
system.cpu.dcache.overall_avg_mshr_miss_latency::total 102977.386935                       # average overall mshr miss latency
system.cpu.dcache.replacements                     10                       # number of replacements
system.cpu.dcache.ReadReq_hits::.cpu.data       490106                       # number of ReadReq hits
system.cpu.dcache.ReadReq_hits::total          490106                       # number of ReadReq hits
system.cpu.dcache.ReadReq_misses::.cpu.data         1653                       # number of ReadReq misses
system.cpu.dcache.ReadReq_misses::total          1653                       # number of ReadReq misses
system.cpu.dcache.ReadReq_miss_latency::.cpu.data    151701000                       # number of ReadReq miss cycles
system.cpu.dcache.ReadReq_miss_latency::total    151701000                       # number of ReadReq miss cycles
system.cpu.dcache.ReadReq_accesses::.cpu.data       491759                       # number of ReadReq accesses(hits+misses)
system.cpu.dcache.ReadReq_accesses::total       491759                       # number of ReadReq accesses(hits+misses)
system.cpu.dcache.ReadReq_miss_rate::.cpu.data     0.003361                       # miss rate for ReadReq accesses
system.cpu.dcache.ReadReq_miss_rate::total     0.003361                       # miss rate for ReadReq accesses
system.cpu.dcache.ReadReq_avg_miss_latency::.cpu.data 91773.139746                       # average ReadReq miss latency
system.cpu.dcache.ReadReq_avg_miss_latency::total 91773.139746                       # average ReadReq miss latency
system.cpu.dcache.ReadReq_mshr_hits::.cpu.data         1062                       # number of ReadReq MSHR hits
system.cpu.dcache.ReadReq_mshr_hits::total         1062                       # number of ReadReq MSHR hits
system.cpu.dcache.ReadReq_mshr_misses::.cpu.data          591                       # number of ReadReq MSHR misses
system.cpu.dcache.ReadReq_mshr_misses::total          591                       # number of ReadReq MSHR misses
system.cpu.dcache.ReadReq_mshr_miss_latency::.cpu.data     61020000                       # number of ReadReq MSHR miss cycles
system.cpu.dcache.ReadReq_mshr_miss_latency::total     61020000                       # number of ReadReq MSHR miss cycles
system.cpu.dcache.ReadReq_mshr_miss_rate::.cpu.data     0.001202                       # mshr miss rate for ReadReq accesses
system.cpu.dcache.ReadReq_mshr_miss_rate::total     0.001202                       # mshr miss rate for ReadReq accesses
system.cpu.dcache.ReadReq_avg_mshr_miss_latency::.cpu.data 103248.730964                       # average ReadReq mshr miss latency
system.cpu.dcache.ReadReq_avg_mshr_miss_latency::total 103248.730964                       # average ReadReq mshr miss latency
system.cpu.dcache.WriteReq_hits::.cpu.data       344468                       # number of WriteReq hits
system.cpu.dcache.WriteReq_hits::total         344468                       # number of WriteReq hits
system.cpu.dcache.WriteReq_misses::.cpu.data          604                       # number of WriteReq misses
system.cpu.dcache.WriteReq_misses::total          604                       # number of WriteReq misses
system.cpu.dcache.WriteReq_miss_latency::.cpu.data     63250000                       # number of WriteReq miss cycles
system.cpu.dcache.WriteReq_miss_latency::total     63250000                       # number of WriteReq miss cycles
system.cpu.dcache.WriteReq_accesses::.cpu.data       345072                       # number of WriteReq accesses(hits+misses)
system.cpu.dcache.WriteReq_accesses::total       345072                       # number of WriteReq accesses(hits+misses)
system.cpu.dcache.WriteReq_miss_rate::.cpu.data     0.001750                       # miss rate for WriteReq accesses
system.cpu.dcache.WriteReq_miss_rate::total     0.001750                       # miss rate for WriteReq accesses
system.cpu.dcache.WriteReq_avg_miss_latency::.cpu.data 104718.543046                       # average WriteReq miss latency
system.cpu.dcache.WriteReq_avg_miss_latency::total 104718.543046                       # average WriteReq miss latency
system.cpu.dcache.WriteReq_mshr_hits::.cpu.data            1                       # number of WriteReq MSHR hits
system.cpu.dcache.WriteReq_mshr_hits::total            1                       # number of WriteReq MSHR hits
system.cpu.dcache.WriteReq_mshr_misses::.cpu.data          603                       # number of WriteReq MSHR misses
system.cpu.dcache.WriteReq_mshr_misses::total          603                       # number of WriteReq MSHR misses
system.cpu.dcache.WriteReq_mshr_miss_latency::.cpu.data     61935000                       # number of WriteReq MSHR miss cycles
system.cpu.dcache.WriteReq_mshr_miss_latency::total     61935000                       # number of WriteReq MSHR miss cycles
system.cpu.dcache.WriteReq_mshr_miss_rate::.cpu.data     0.001747                       # mshr miss rate for WriteReq accesses
system.cpu.dcache.WriteReq_mshr_miss_rate::total     0.001747                       # mshr miss rate for WriteReq accesses
system.cpu.dcache.WriteReq_avg_mshr_miss_latency::.cpu.data 102711.442786                       # average WriteReq mshr miss latency
system.cpu.dcache.WriteReq_avg_mshr_miss_latency::total 102711.442786                       # average WriteReq mshr miss latency
system.cpu.dcache.tags.pwrStateResidencyTicks::UNDEFINED   2634413000                       # Cumulative time (in ticks) in various power states
system.cpu.dcache.tags.tagsinuse           710.465540                       # Cycle average of tags in use
system.cpu.dcache.tags.total_refs              835768                       # Total number of references to valid blocks.
system.cpu.dcache.tags.sampled_refs              1194                       # Sample count of references to valid blocks.
system.cpu.dcache.tags.avg_refs            699.973199                       # Average number of references to valid blocks.
system.cpu.dcache.tags.warmup_cycle            222000                       # Cycle when the warmup percentage was hit.
system.cpu.dcache.tags.occ_blocks::.cpu.data   710.465540                       # Average occupied blocks per requestor
system.cpu.dcache.tags.occ_percent::.cpu.data     0.346907                       # Average percentage of cache occupancy
system.cpu.dcache.tags.occ_percent::total     0.346907                       # Average percentage of cache occupancy
system.cpu.dcache.tags.occ_task_id_blocks::1024         1184                       # Occupied blocks per task id
system.cpu.dcache.tags.age_task_id_blocks_1024::0           23                       # Occupied blocks per task id
system.cpu.dcache.tags.age_task_id_blocks_1024::2          319                       # Occupied blocks per task id
system.cpu.dcache.tags.age_task_id_blocks_1024::3          842                       # Occupied blocks per task id
system.cpu.dcache.tags.occ_task_id_percent::1024     0.578125                       # Percentage of cache occupancy per task id
system.cpu.dcache.tags.tag_accesses           1674856                       # Number of tag accesses
system.cpu.dcache.tags.data_accesses          1674856                       # Number of data accesses
system.l2cache.pwrStateResidencyTicks::UNDEFINED   2634413000                       # Cumulative time (in ticks) in various power states
system.l2cache.demand_hits::.cpu.inst               1                       # number of demand (read+write) hits
system.l2cache.demand_hits::.cpu.data               2                       # number of demand (read+write) hits
system.l2cache.demand_hits::total                   3                       # number of demand (read+write) hits
system.l2cache.overall_hits::.cpu.inst              1                       # number of overall hits
system.l2cache.overall_hits::.cpu.data              2                       # number of overall hits
system.l2cache.overall_hits::total                  3                       # number of overall hits
system.l2cache.demand_misses::.cpu.inst           315                       # number of demand (read+write) misses
system.l2cache.demand_misses::.cpu.data          1192                       # number of demand (read+write) misses
system.l2cache.demand_misses::total              1507                       # number of demand (read+write) misses
system.l2cache.overall_misses::.cpu.inst          315                       # number of overall misses
system.l2cache.overall_misses::.cpu.data         1192                       # number of overall misses
system.l2cache.overall_misses::total             1507                       # number of overall misses
system.l2cache.demand_miss_latency::.cpu.inst     31152000                       # number of demand (read+write) miss cycles
system.l2cache.demand_miss_latency::.cpu.data    119329000                       # number of demand (read+write) miss cycles
system.l2cache.demand_miss_latency::total    150481000                       # number of demand (read+write) miss cycles
system.l2cache.overall_miss_latency::.cpu.inst     31152000                       # number of overall miss cycles
system.l2cache.overall_miss_latency::.cpu.data    119329000                       # number of overall miss cycles
system.l2cache.overall_miss_latency::total    150481000                       # number of overall miss cycles
system.l2cache.demand_accesses::.cpu.inst          316                       # number of demand (read+write) accesses
system.l2cache.demand_accesses::.cpu.data         1194                       # number of demand (read+write) accesses
system.l2cache.demand_accesses::total            1510                       # number of demand (read+write) accesses
[...]
system.mem_ctrl.rdQLenPdf::11                       0                       # What read queue length does an incoming req see
system.mem_ctrl.rdQLenPdf::12                       0                       # What read queue length does an incoming req see
system.mem_ctrl.rdQLenPdf::13                       0                       # What read queue length does an incoming req see
system.mem_ctrl.rdQLenPdf::14                       0                       # What read queue length does an incoming req see
system.mem_ctrl.rdQLenPdf::15                       0                       # What read queue length does an incoming req see
system.mem_ctrl.rdQLenPdf::16                       0                       # What read queue length does an incoming req see
system.mem_ctrl.rdQLenPdf::17                       0                       # What read queue length does an incoming req see
system.mem_ctrl.rdQLenPdf::18                       0                       # What read queue length does an incoming req see
system.mem_ctrl.rdQLenPdf::19                       0                       # What read queue length does an incoming req see
system.mem_ctrl.rdQLenPdf::20                       0                       # What read queue length does an incoming req see
system.mem_ctrl.rdQLenPdf::21                       0                       # What read queue length does an incoming req see
system.mem_ctrl.rdQLenPdf::22                       0                       # What read queue length does an incoming req see
system.mem_ctrl.rdQLenPdf::23                       0                       # What read queue length does an incoming req see
system.mem_ctrl.rdQLenPdf::24                       0                       # What read queue length does an incoming req see
system.mem_ctrl.rdQLenPdf::25                       0                       # What read queue length does an incoming req see
system.mem_ctrl.rdQLenPdf::26                       0                       # What read queue length does an incoming req see
system.mem_ctrl.rdQLenPdf::27                       0                       # What read queue length does an incoming req see
system.mem_ctrl.rdQLenPdf::28                       0                       # What read queue length does an incoming req see
system.mem_ctrl.rdQLenPdf::29                       0                       # What read queue length does an incoming req see
system.mem_ctrl.rdQLenPdf::30                       0                       # What read queue length does an incoming req see
system.mem_ctrl.rdQLenPdf::31                       0                       # What read queue length does an incoming req see
system.mem_ctrl.wrQLenPdf::0                        0                       # What write queue length does an incoming req see
system.mem_ctrl.wrQLenPdf::1                        0                       # What write queue length does an incoming req see
system.mem_ctrl.wrQLenPdf::2                        0                       # What write queue length does an incoming req see
system.mem_ctrl.wrQLenPdf::3                        0                       # What write queue length does an incoming req see
system.mem_ctrl.wrQLenPdf::4                        0                       # What write queue length does an incoming req see
system.mem_ctrl.wrQLenPdf::5                        0                       # What write queue length does an incoming req see
system.mem_ctrl.wrQLenPdf::6                        0                       # What write queue length does an incoming req see
system.mem_ctrl.wrQLenPdf::7                        0                       # What write queue length does an incoming req see
system.mem_ctrl.wrQLenPdf::8                        0                       # What write queue length does an incoming req see
system.mem_ctrl.wrQLenPdf::9                        0                       # What write queue length does an incoming req see
system.mem_ctrl.wrQLenPdf::10                       0                       # What write queue length does an incoming req see
system.mem_ctrl.wrQLenPdf::11                       0                       # What write queue length does an incoming req see
system.mem_ctrl.wrQLenPdf::12                       0                       # What write queue length does an incoming req see
system.mem_ctrl.wrQLenPdf::13                       0                       # What write queue length does an incoming req see
system.mem_ctrl.wrQLenPdf::14                       0                       # What write queue length does an incoming req see
system.mem_ctrl.wrQLenPdf::15                       0                       # What write queue length does an incoming req see
system.mem_ctrl.wrQLenPdf::16                       0                       # What write queue length does an incoming req see
system.mem_ctrl.wrQLenPdf::17                       0                       # What write queue length does an incoming req see
system.mem_ctrl.wrQLenPdf::18                       0                       # What write queue length does an incoming req see
system.mem_ctrl.wrQLenPdf::19                       0                       # What write queue length does an incoming req see
system.mem_ctrl.wrQLenPdf::20                       0                       # What write queue length does an incoming req see
system.mem_ctrl.wrQLenPdf::21                       0                       # What write queue length does an incoming req see
system.mem_ctrl.wrQLenPdf::22                       0                       # What write queue length does an incoming req see
system.mem_ctrl.wrQLenPdf::23                       0                       # What write queue length does an incoming req see
system.mem_ctrl.wrQLenPdf::24                       0                       # What write queue length does an incoming req see
system.mem_ctrl.wrQLenPdf::25                       0                       # What write queue length does an incoming req see
system.mem_ctrl.wrQLenPdf::26                       0                       # What write queue length does an incoming req see
system.mem_ctrl.wrQLenPdf::27                       0                       # What write queue length does an incoming req see
system.mem_ctrl.wrQLenPdf::28                       0                       # What write queue length does an incoming req see
system.mem_ctrl.wrQLenPdf::29                       0                       # What write queue length does an incoming req see
system.mem_ctrl.wrQLenPdf::30                       0                       # What write queue length does an incoming req see
system.mem_ctrl.wrQLenPdf::31                       0                       # What write queue length does an incoming req see
system.mem_ctrl.wrQLenPdf::32                       0                       # What write queue length does an incoming req see
system.mem_ctrl.wrQLenPdf::33                       0                       # What write queue length does an incoming req see
system.mem_ctrl.wrQLenPdf::34                       0                       # What write queue length does an incoming req see
system.mem_ctrl.wrQLenPdf::35                       0                       # What write queue length does an incoming req see
system.mem_ctrl.wrQLenPdf::36                       0                       # What write queue length does an incoming req see
system.mem_ctrl.wrQLenPdf::37                       0                       # What write queue length does an incoming req see
system.mem_ctrl.wrQLenPdf::38                       0                       # What write queue length does an incoming req see
system.mem_ctrl.wrQLenPdf::39                       0                       # What write queue length does an incoming req see
system.mem_ctrl.wrQLenPdf::40                       0                       # What write queue length does an incoming req see
system.mem_ctrl.wrQLenPdf::41                       0                       # What write queue length does an incoming req see
system.mem_ctrl.wrQLenPdf::42                       0                       # What write queue length does an incoming req see
system.mem_ctrl.wrQLenPdf::43                       0                       # What write queue length does an incoming req see
system.mem_ctrl.wrQLenPdf::44                       0                       # What write queue length does an incoming req see
system.mem_ctrl.wrQLenPdf::45                       0                       # What write queue length does an incoming req see
system.mem_ctrl.wrQLenPdf::46                       0                       # What write queue length does an incoming req see
system.mem_ctrl.wrQLenPdf::47                       0                       # What write queue length does an incoming req see
system.mem_ctrl.wrQLenPdf::48                       0                       # What write queue length does an incoming req see
system.mem_ctrl.wrQLenPdf::49                       0                       # What write queue length does an incoming req see
system.mem_ctrl.wrQLenPdf::50                       0                       # What write queue length does an incoming req see
system.mem_ctrl.wrQLenPdf::51                       0                       # What write queue length does an incoming req see
system.mem_ctrl.wrQLenPdf::52                       0                       # What write queue length does an incoming req see
system.mem_ctrl.wrQLenPdf::53                       0                       # What write queue length does an incoming req see
system.mem_ctrl.wrQLenPdf::54                       0                       # What write queue length does an incoming req see
system.mem_ctrl.wrQLenPdf::55                       0                       # What write queue length does an incoming req see
system.mem_ctrl.wrQLenPdf::56                       0                       # What write queue length does an incoming req see
system.mem_ctrl.wrQLenPdf::57                       0                       # What write queue length does an incoming req see
system.mem_ctrl.wrQLenPdf::58                       0                       # What write queue length does an incoming req see
system.mem_ctrl.wrQLenPdf::59                       0                       # What write queue length does an incoming req see
system.mem_ctrl.wrQLenPdf::60                       0                       # What write queue length does an incoming req see
system.mem_ctrl.wrQLenPdf::61                       0                       # What write queue length does an incoming req see
system.mem_ctrl.wrQLenPdf::62                       0                       # What write queue length does an incoming req see
system.mem_ctrl.wrQLenPdf::63                       0                       # What write queue length does an incoming req see
system.mem_ctrl.bytesPerActivate::samples          544                       # Bytes accessed per row activation
system.mem_ctrl.bytesPerActivate::mean     174.588235                       # Bytes accessed per row activation
system.mem_ctrl.bytesPerActivate::gmean    146.154212                       # Bytes accessed per row activation
system.mem_ctrl.bytesPerActivate::stdev    149.014811                       # Bytes accessed per row activation
system.mem_ctrl.bytesPerActivate::0-127            95     17.46%     17.46% # Bytes accessed per row activation
system.mem_ctrl.bytesPerActivate::128-255          396     72.79%     90.26% # Bytes accessed per row activation
system.mem_ctrl.bytesPerActivate::256-383           28      5.15%     95.40% # Bytes accessed per row activation
system.mem_ctrl.bytesPerActivate::384-511            7      1.29%     96.69% # Bytes accessed per row activation
system.mem_ctrl.bytesPerActivate::512-639            2      0.37%     97.06% # Bytes accessed per row activation
system.mem_ctrl.bytesPerActivate::640-767            2      0.37%     97.43% # Bytes accessed per row activation
system.mem_ctrl.bytesPerActivate::768-895            3      0.55%     97.98% # Bytes accessed per row activation
system.mem_ctrl.bytesPerActivate::896-1023            1      0.18%     98.16% # Bytes accessed per row activation
system.mem_ctrl.bytesPerActivate::1024-1151           10      1.84%    100.00% # Bytes accessed per row activation
system.mem_ctrl.bytesPerActivate::total           544                       # Bytes accessed per row activation
system.mem_ctrl.bytesReadDRAM                   96384                       # Total number of bytes read from DRAM
system.mem_ctrl.bytesReadWrQ                        0                       # Total number of bytes read from write queue
system.mem_ctrl.bytesWritten                        0                       # Total number of bytes written to DRAM
system.mem_ctrl.bytesReadSys                    96384                       # Total read bytes from the system interface side
system.mem_ctrl.bytesWrittenSys                     0                       # Total written bytes from the system interface side
system.mem_ctrl.avgRdBW                         36.59                       # Average DRAM read bandwidth in MiByte/s
system.mem_ctrl.avgWrBW                          0.00                       # Average achieved write bandwidth in MiByte/s
system.mem_ctrl.avgRdBWSys                      36.59                       # Average system read bandwidth in MiByte/s
system.mem_ctrl.avgWrBWSys                       0.00                       # Average system write bandwidth in MiByte/s
system.mem_ctrl.peakBW                       12800.00                       # Theoretical peak bandwidth in MiByte/s
system.mem_ctrl.busUtil                          0.29                       # Data bus utilization in percentage
system.mem_ctrl.busUtilRead                      0.29                       # Data bus utilization in percentage for reads
system.mem_ctrl.busUtilWrite                     0.00                       # Data bus utilization in percentage for writes
system.mem_ctrl.totGap                     2634279000                       # Total gap between requests
system.mem_ctrl.avgGap                     1749189.24                       # Average gap between requests
system.mem_ctrl.masterReadBytes::.cpu.inst        20096                       # Per-master bytes read from memory
system.mem_ctrl.masterReadBytes::.cpu.data        76288                       # Per-master bytes read from memory
system.mem_ctrl.masterReadRate::.cpu.inst 7628264.816488531418                       # Per-master bytes read from memory rate (Bytes/sec)
system.mem_ctrl.masterReadRate::.cpu.data 28958253.698262192309                       # Per-master bytes read from memory rate (Bytes/sec)
system.mem_ctrl.masterReadAccesses::.cpu.inst          314                       # Per-master read serviced memory accesses
system.mem_ctrl.masterReadAccesses::.cpu.data         1192                       # Per-master read serviced memory accesses
system.mem_ctrl.masterReadTotalLat::.cpu.inst      8758000                       # Per-master read total memory access latency
system.mem_ctrl.masterReadTotalLat::.cpu.data     34271500                       # Per-master read total memory access latency
system.mem_ctrl.masterReadAvgLat::.cpu.inst     27891.72                       # Per-master read average memory access latency
system.mem_ctrl.masterReadAvgLat::.cpu.data     28751.26                       # Per-master read average memory access latency
system.mem_ctrl.pageHitRate                     63.41                       # Row buffer hit rate, read and write combined
system.mem_ctrl.rank1.actEnergy                906780                       # Energy for activate commands per rank (pJ)
system.mem_ctrl.rank1.preEnergy                470580                       # Energy for precharge commands per rank (pJ)
system.mem_ctrl.rank1.readEnergy              2563260                       # Energy for read commands per rank (pJ)
system.mem_ctrl.rank1.writeEnergy                   0                       # Energy for write commands per rank (pJ)
system.mem_ctrl.rank1.refreshEnergy      207748320.000000                       # Energy for refresh commands per rank (pJ)
system.mem_ctrl.rank1.actBackEnergy         260834850                       # Energy for active background per rank (pJ)
system.mem_ctrl.rank1.preBackEnergy         791964480                       # Energy for precharge background per rank (pJ)
system.mem_ctrl.rank1.actPowerDownEnergy            0                       # Energy for active power-down per rank (pJ)
system.mem_ctrl.rank1.prePowerDownEnergy            0                       # Energy for precharge power-down per rank (pJ)
system.mem_ctrl.rank1.selfRefreshEnergy             0                       # Energy for self refresh per rank (pJ)
system.mem_ctrl.rank1.totalEnergy          1264488270                       # Total energy per rank (pJ)
system.mem_ctrl.rank1.averagePower         479.988624                       # Core power per rank (mW)
system.mem_ctrl.rank1.totalIdleTime                 0                       # Total Idle time Per DRAM Rank
system.mem_ctrl.rank1.memoryStateTime::IDLE   2056522000                       # Time in different power states
system.mem_ctrl.rank1.memoryStateTime::REF     87880000                       # Time in different power states
system.mem_ctrl.rank1.memoryStateTime::SREF            0                       # Time in different power states
system.mem_ctrl.rank1.memoryStateTime::PRE_PDN            0                       # Time in different power states
system.mem_ctrl.rank1.memoryStateTime::ACT    490011000                       # Time in different power states
system.mem_ctrl.rank1.memoryStateTime::ACT_PDN            0                       # Time in different power states
system.mem_ctrl.rank0.actEnergy               3027360                       # Energy for activate commands per rank (pJ)
system.mem_ctrl.rank0.preEnergy               1593900                       # Energy for precharge commands per rank (pJ)
system.mem_ctrl.rank0.readEnergy              8189580                       # Energy for read commands per rank (pJ)
system.mem_ctrl.rank0.writeEnergy                   0                       # Energy for write commands per rank (pJ)
system.mem_ctrl.rank0.refreshEnergy      207748320.000000                       # Energy for refresh commands per rank (pJ)
system.mem_ctrl.rank0.actBackEnergy         630933000                       # Energy for active background per rank (pJ)
system.mem_ctrl.rank0.preBackEnergy         480302880                       # Energy for precharge background per rank (pJ)
system.mem_ctrl.rank0.actPowerDownEnergy            0                       # Energy for active power-down per rank (pJ)
system.mem_ctrl.rank0.prePowerDownEnergy            0                       # Energy for precharge power-down per rank (pJ)
system.mem_ctrl.rank0.selfRefreshEnergy             0                       # Energy for self refresh per rank (pJ)
system.mem_ctrl.rank0.totalEnergy          1331795040                       # Total energy per rank (pJ)
system.mem_ctrl.rank0.averagePower         505.537681                       # Core power per rank (mW)
system.mem_ctrl.rank0.totalIdleTime                 0                       # Total Idle time Per DRAM Rank
system.mem_ctrl.rank0.memoryStateTime::IDLE   1242946250                       # Time in different power states
system.mem_ctrl.rank0.memoryStateTime::REF     87880000                       # Time in different power states
system.mem_ctrl.rank0.memoryStateTime::SREF            0                       # Time in different power states
system.mem_ctrl.rank0.memoryStateTime::PRE_PDN            0                       # Time in different power states
system.mem_ctrl.rank0.memoryStateTime::ACT   1303586750                       # Time in different power states
system.mem_ctrl.rank0.memoryStateTime::ACT_PDN            0                       # Time in different power states

---------- End Simulation Statistics   ----------
