
---------- Begin Simulation Statistics ----------
final_tick                                 7016843000                       # Number of ticks from beginning of simulation (restored from checkpoints and never reset)
host_inst_rate                                 217042                       # Simulator instruction rate (inst/s)
host_mem_usage                                 794984                       # Number of bytes of host memory used
host_op_rate                                   410996                       # Simulator op (including micro ops) rate (op/s)
host_seconds                                    56.80                       # Real time elapsed on the host
host_tick_rate                              123525159                       # Simulator tick rate (ticks/s)
sim_freq                                 1000000000000                       # Frequency of simulated ticks
sim_insts                                    12329017                       # Number of instructions simulated
sim_ops                                      23346629                       # Number of ops (including micro ops) simulated
sim_seconds                                  0.007017                       # Number of seconds simulated
sim_ticks                                  7016843000                       # Number of ticks simulated
system.cpu.branchPred.BTBCorrect                    0                       # Number of correct BTB predictions (this stat may not work properly.
system.cpu.branchPred.BTBHitPct              0.000000                       # BTB Hit Percentage
system.cpu.branchPred.BTBHits                       0                       # Number of BTB hits
system.cpu.branchPred.BTBLookups              1543307                       # Number of BTB lookups
system.cpu.branchPred.RASInCorrect                  1                       # Number of incorrect RAS predictions.
system.cpu.branchPred.condIncorrect               855                       # Number of conditional branches incorrect
system.cpu.branchPred.condPredicted           1608627                       # Number of conditional branches predicted
system.cpu.branchPred.indirectHits            1311579                       # Number of indirect target hits.
system.cpu.branchPred.indirectLookups         1543307                       # Number of indirect predictor lookups.
system.cpu.branchPred.indirectMisses           231728                       # Number of indirect misses.
system.cpu.branchPred.lookups                 1609352                       # Number of BP lookups
system.cpu.branchPred.usedRAS                     253                       # Number of times the RAS was used to get a target.
system.cpu.branchPredindirectMispredicted          494                       # Number of mispredicted indirect branches.
system.cpu.cc_regfile_reads                   7938234                       # number of cc regfile reads
system.cpu.cc_regfile_writes                  9903674                       # number of cc regfile writes
system.cpu.commit.amos                              0                       # Number of atomic instructions committed
system.cpu.commit.branchMispredicts               864                       # The number of times a branch was mispredicted
system.cpu.commit.branches                    1606851                       # Number of branches committed
system.cpu.commit.bw_lim_events               1353349                       # number cycles where commit BW limit reached
system.cpu.commit.commitNonSpecStalls               9                       # The number of times commit has been forced to stall to communicate backwards
system.cpu.commit.commitSquashedInsts           22227                       # The number of squashed insts skipped by commit
system.cpu.commit.committedInsts             12329017                       # Number of instructions committed
system.cpu.commit.committedOps               23346629                       # Number of ops (including micro ops) committed
system.cpu.commit.committed_per_cycle::samples      7001233                       # Number of insts commited each cycle
system.cpu.commit.committed_per_cycle::mean     3.334645                       # Number of insts commited each cycle
system.cpu.commit.committed_per_cycle::stdev     2.809257                       # Number of insts commited each cycle
system.cpu.commit.committed_per_cycle::underflows            0      0.00%      0.00% # Number of insts commited each cycle
system.cpu.commit.committed_per_cycle::0       689935      9.85%      9.85% # Number of insts commited each cycle
system.cpu.commit.committed_per_cycle::1      1776872     25.38%     35.23% # Number of insts commited each cycle
system.cpu.commit.committed_per_cycle::2      1496038     21.37%     56.60% # Number of insts commited each cycle
system.cpu.commit.committed_per_cycle::3       434190      6.20%     62.80% # Number of insts commited each cycle
system.cpu.commit.committed_per_cycle::4       493341      7.05%     69.85% # Number of insts commited each cycle
system.cpu.commit.committed_per_cycle::5       285155      4.07%     73.92% # Number of insts commited each cycle
system.cpu.commit.committed_per_cycle::6       257291      3.67%     77.60% # Number of insts commited each cycle
system.cpu.commit.committed_per_cycle::7       215062      3.07%     80.67% # Number of insts commited each cycle
system.cpu.commit.committed_per_cycle::8      1353349     19.33%    100.00% # Number of insts commited each cycle
system.cpu.commit.committed_per_cycle::overflows            0      0.00%    100.00% # Number of insts commited each cycle
system.cpu.commit.committed_per_cycle::min_value            0                       # Number of insts commited each cycle
system.cpu.commit.committed_per_cycle::max_value            8                       # Number of insts commited each cycle
system.cpu.commit.committed_per_cycle::total      7001233                       # Number of insts commited each cycle
system.cpu.commit.fp_insts                    8388912                       # Number of committed floating point instructions.
system.cpu.commit.function_calls                   89                       # Number of function calls committed.
system.cpu.commit.int_insts                  18332723                       # Number of committed integer instructions.
system.cpu.commit.loads                       3541593                       # Number of loads committed
system.cpu.commit.membars                           0                       # Number of memory barriers committed
system.cpu.commit.op_class_0::No_OpClass           40      0.00%      0.00% # Class of committed instruction
system.cpu.commit.op_class_0::IntAlu         15411262     66.01%     66.01% # Class of committed instruction
system.cpu.commit.op_class_0::IntMult               5      0.00%     66.01% # Class of committed instruction
system.cpu.commit.op_class_0::IntDiv               21      0.00%     66.01% # Class of committed instruction
system.cpu.commit.op_class_0::FloatAdd         524290      2.25%     68.26% # Class of committed instruction
system.cpu.commit.op_class_0::FloatCmp              0      0.00%     68.26% # Class of committed instruction
system.cpu.commit.op_class_0::FloatCvt              0      0.00%     68.26% # Class of committed instruction
system.cpu.commit.op_class_0::FloatMult             0      0.00%     68.26% # Class of committed instruction
system.cpu.commit.op_class_0::FloatMultAcc            0      0.00%     68.26% # Class of committed instruction
system.cpu.commit.op_class_0::FloatDiv              0      0.00%     68.26% # Class of committed instruction
system.cpu.commit.op_class_0::FloatMisc             0      0.00%     68.26% # Class of committed instruction
system.cpu.commit.op_class_0::FloatSqrt             0      0.00%     68.26% # Class of committed instruction
system.cpu.commit.op_class_0::SimdAdd               0      0.00%     68.26% # Class of committed instruction
system.cpu.commit.op_class_0::SimdAddAcc            0      0.00%     68.26% # Class of committed instruction
system.cpu.commit.op_class_0::SimdAlu              44      0.00%     68.26% # Class of committed instruction
system.cpu.commit.op_class_0::SimdCmp               0      0.00%     68.26% # Class of committed instruction
system.cpu.commit.op_class_0::SimdCvt              30      0.00%     68.26% # Class of committed instruction
system.cpu.commit.op_class_0::SimdMisc         524332      2.25%     70.50% # Class of committed instruction
system.cpu.commit.op_class_0::SimdMult              0      0.00%     70.50% # Class of committed instruction
system.cpu.commit.op_class_0::SimdMultAcc            0      0.00%     70.50% # Class of committed instruction
system.cpu.commit.op_class_0::SimdShift             0      0.00%     70.50% # Class of committed instruction
system.cpu.commit.op_class_0::SimdShiftAcc            0      0.00%     70.50% # Class of committed instruction
system.cpu.commit.op_class_0::SimdDiv               0      0.00%     70.50% # Class of committed instruction
system.cpu.commit.op_class_0::SimdSqrt              0      0.00%     70.50% # Class of committed instruction
system.cpu.commit.op_class_0::SimdFloatAdd      1048576      4.49%     74.99% # Class of committed instruction
system.cpu.commit.op_class_0::SimdFloatAlu            0      0.00%     74.99% # Class of committed instruction
system.cpu.commit.op_class_0::SimdFloatCmp            0      0.00%     74.99% # Class of committed instruction
system.cpu.commit.op_class_0::SimdFloatCvt            0      0.00%     74.99% # Class of committed instruction
system.cpu.commit.op_class_0::SimdFloatDiv            0      0.00%     74.99% # Class of committed instruction
system.cpu.commit.op_class_0::SimdFloatMisc            0      0.00%     74.99% # Class of committed instruction
system.cpu.commit.op_class_0::SimdFloatMult      1048576      4.49%     79.49% # Class of committed instruction
system.cpu.commit.op_class_0::SimdFloatMultAcc            0      0.00%     79.49% # Class of committed instruction
system.cpu.commit.op_class_0::SimdFloatSqrt            0      0.00%     79.49% # Class of committed instruction
system.cpu.commit.op_class_0::SimdReduceAdd            0      0.00%     79.49% # Class of committed instruction
system.cpu.commit.op_class_0::SimdReduceAlu            0      0.00%     79.49% # Class of committed instruction
system.cpu.commit.op_class_0::SimdReduceCmp            0      0.00%     79.49% # Class of committed instruction
system.cpu.commit.op_class_0::SimdFloatReduceAdd            0      0.00%     79.49% # Class of committed instruction
system.cpu.commit.op_class_0::SimdFloatReduceCmp            0      0.00%     79.49% # Class of committed instruction
system.cpu.commit.op_class_0::SimdAes               0      0.00%     79.49% # Class of committed instruction
system.cpu.commit.op_class_0::SimdAesMix            0      0.00%     79.49% # Class of committed instruction
system.cpu.commit.op_class_0::SimdSha1Hash            0      0.00%     79.49% # Class of committed instruction
system.cpu.commit.op_class_0::SimdSha1Hash2            0      0.00%     79.49% # Class of committed instruction
system.cpu.commit.op_class_0::SimdSha256Hash            0      0.00%     79.49% # Class of committed instruction
system.cpu.commit.op_class_0::SimdSha256Hash2            0      0.00%     79.49% # Class of committed instruction
system.cpu.commit.op_class_0::SimdShaSigma2            0      0.00%     79.49% # Class of committed instruction
system.cpu.commit.op_class_0::SimdShaSigma3            0      0.00%     79.49% # Class of committed instruction
system.cpu.commit.op_class_0::SimdPredAlu            0      0.00%     79.49% # Class of committed instruction
system.cpu.commit.op_class_0::MemRead         1182271      5.06%     84.55% # Class of committed instruction
system.cpu.commit.op_class_0::MemWrite         199132      0.85%     85.40% # Class of committed instruction
system.cpu.commit.op_class_0::FloatMemRead      2359322     10.11%     95.51% # Class of committed instruction
system.cpu.commit.op_class_0::FloatMemWrite      1048728      4.49%    100.00% # Class of committed instruction
system.cpu.commit.op_class_0::IprAccess             0      0.00%    100.00% # Class of committed instruction
system.cpu.commit.op_class_0::InstPrefetch            0      0.00%    100.00% # Class of committed instruction
system.cpu.commit.op_class_0::total          23346629                       # Class of committed instruction
system.cpu.commit.refs                        4789453                       # Number of memory references committed
system.cpu.commit.swp_count                         0                       # Number of s/w prefetches committed
system.cpu.commit.vec_insts                         0                       # Number of committed Vector instructions.
system.cpu.committedInsts                    12329017                       # Number of Instructions Simulated
system.cpu.committedOps                      23346629                       # Number of Ops (including micro ops) Simulated
system.cpu.cpi                               0.569132                       # CPI: Cycles Per Instruction
system.cpu.cpi_total                         0.569132                       # CPI: Total CPI of All Threads
system.cpu.decode.BlockedCycles                178452                       # Number of cycles decode is blocked
system.cpu.decode.DecodedInsts               23380065                       # Number of instructions handled by decode
system.cpu.decode.IdleCycles                  2668605                       # Number of cycles decode is idle
system.cpu.decode.RunCycles                   4137289                       # Number of cycles decode is running
system.cpu.decode.SquashCycles                    963                       # Number of cycles decode is squashing
system.cpu.decode.UnblockCycles                 19333                       # Number of cycles decode is unblocking
system.cpu.dtb.rdAccesses                     3543813                       # TLB accesses on read requests
system.cpu.dtb.rdMisses                            97                       # TLB misses on read requests
system.cpu.dtb.wrAccesses                     1248595                       # TLB accesses on write requests
system.cpu.dtb.wrMisses                             8                       # TLB misses on write requests
system.cpu.fetch.Branches                     1609352                       # Number of branches that fetch encountered
system.cpu.fetch.CacheLines                   2429234                       # Number of cache lines fetched
system.cpu.fetch.Cycles                       4565269                       # Number of cycles fetch has run and was not squashing or blocked
system.cpu.fetch.IcacheSquashes                   591                       # Number of outstanding Icache misses that were squashed
system.cpu.fetch.Insts                       12352070                       # Number of instructions fetch has processed
system.cpu.fetch.MiscStallCycles                   13                       # Number of cycles fetch has spent waiting on interrupts, or bad addresses, or out of MSHRs
system.cpu.fetch.PendingQuiesceStallCycles           15                       # Number of stall cycles due to pending quiesce instructions
system.cpu.fetch.PendingTrapStallCycles            64                       # Number of stall cycles due to pending traps
system.cpu.fetch.SquashCycles                    1926                       # Number of cycles fetch has spent squashing
system.cpu.fetch.branchRate                  0.229356                       # Number of branch fetches per cycle
system.cpu.fetch.icacheStallCycles            2438318                       # Number of cycles fetch is stalled on an Icache miss
system.cpu.fetch.predictedBranches            1311832                       # Number of branches that fetch has predicted taken
system.cpu.fetch.rate                        1.760346                       # Number of inst fetches per cycle
system.cpu.fetch.rateDist::samples            7004642                       # Number of instructions fetched each cycle (Total)
system.cpu.fetch.rateDist::mean              3.338377                       # Number of instructions fetched each cycle (Total)
system.cpu.fetch.rateDist::stdev             3.428253                       # Number of instructions fetched each cycle (Total)
system.cpu.fetch.rateDist::underflows               0      0.00%      0.00% # Number of instructions fetched each cycle (Total)
system.cpu.fetch.rateDist::0                  2833507     40.45%     40.45% # Number of instructions fetched each cycle (Total)
system.cpu.fetch.rateDist::1                   523534      7.47%     47.93% # Number of instructions fetched each cycle (Total)
system.cpu.fetch.rateDist::2                   298219      4.26%     52.18% # Number of instructions fetched each cycle (Total)
system.cpu.fetch.rateDist::3                   262768      3.75%     55.93% # Number of instructions fetched each cycle (Total)
system.cpu.fetch.rateDist::4                   296097      4.23%     60.16% # Number of instructions fetched each cycle (Total)
system.cpu.fetch.rateDist::5                   490415      7.00%     67.16% # Number of instructions fetched each cycle (Total)
system.cpu.fetch.rateDist::6                   262779      3.75%     70.91% # Number of instructions fetched each cycle (Total)
system.cpu.fetch.rateDist::7                    35860      0.51%     71.43% # Number of instructions fetched each cycle (Total)
system.cpu.fetch.rateDist::8                  2001463     28.57%    100.00% # Number of instructions fetched each cycle (Total)
system.cpu.fetch.rateDist::overflows                0      0.00%    100.00% # Number of instructions fetched each cycle (Total)
system.cpu.fetch.rateDist::min_value                0                       # Number of instructions fetched each cycle (Total)
system.cpu.fetch.rateDist::max_value                8                       # Number of instructions fetched each cycle (Total)
system.cpu.fetch.rateDist::total              7004642                       # Number of instructions fetched each cycle (Total)
system.cpu.fp_regfile_reads                  12059211                       # number of floating regfile reads
system.cpu.fp_regfile_writes                  7340363                       # number of floating regfile writes
system.cpu.idleCycles                           12202                       # Total number of cycles that the CPU has spent unscheduled due to idling
system.cpu.iew.branchMispredicts                 1012                       # Number of branch mispredicts detected at execute
system.cpu.iew.exec_branches                  1607327                       # Number of branches executed
system.cpu.iew.exec_nop                             0                       # number of nop insts executed
system.cpu.iew.exec_rate                     3.328816                       # Inst execution rate
system.cpu.iew.exec_refs                      4792418                       # number of memory reference insts executed
system.cpu.iew.exec_stores                    1248594                       # Number of stores executed
system.cpu.iew.exec_swp                             0                       # number of swp insts executed
system.cpu.iew.iewBlockCycles                    3112                       # Number of cycles IEW is blocking
system.cpu.iew.iewDispLoadInsts               3545387                       # Number of dispatched load instructions
system.cpu.iew.iewDispNonSpecInsts                 39                       # Number of dispatched non-speculative instructions
system.cpu.iew.iewDispSquashedInsts                24                       # Number of squashed instructions skipped by dispatch
system.cpu.iew.iewDispStoreInsts              1250076                       # Number of dispatched store instructions
system.cpu.iew.iewDispatchedInsts            23368853                       # Number of instructions dispatched to IQ
system.cpu.iew.iewExecLoadInsts               3543824                       # Number of load instructions executed
system.cpu.iew.iewExecSquashedInsts              1820                       # Number of squashed instructions skipped in execute
system.cpu.iew.iewExecutedInsts              23357785                       # Number of executed instructions
system.cpu.iew.iewIQFullEvents                     22                       # Number of times the IQ has become full, causing a stall
system.cpu.iew.iewIdleCycles                        0                       # Number of cycles IEW is idle
system.cpu.iew.iewLSQFullEvents                  7124                       # Number of times the LSQ has become full, causing a stall
system.cpu.iew.iewSquashCycles                    963                       # Number of cycles IEW is squashing
system.cpu.iew.iewUnblockCycles                  7147                       # Number of cycles IEW is unblocking
system.cpu.iew.lsq.thread0.blockedLoads             0                       # Number of blocked loads due to partial load-store forwarding
system.cpu.iew.lsq.thread0.cacheBlocked             6                       # Number of times an access to memory failed due to the cache being blocked
system.cpu.iew.lsq.thread0.forwLoads           102485                       # Number of loads that had data forwarded from stores
system.cpu.iew.lsq.thread0.ignoredResponses           26                       # Number of memory responses ignored because the instruction is squashed
system.cpu.iew.lsq.thread0.invAddrLoads             0                       # Number of loads ignored due to an invalid address
system.cpu.iew.lsq.thread0.invAddrSwpfs             0                       # Number of software prefetches ignored due to an invalid address
system.cpu.iew.lsq.thread0.memOrderViolation          125                       # Number of memory ordering violations
system.cpu.iew.lsq.thread0.rescheduledLoads            2                       # Number of loads that were rescheduled
system.cpu.iew.lsq.thread0.squashedLoads         3794                       # Number of loads squashed
system.cpu.iew.lsq.thread0.squashedStores         2216                       # Number of stores squashed
system.cpu.iew.memOrderViolationEvents            125                       # Number of memory order violations
system.cpu.iew.predictedNotTakenIncorrect          722                       # Number of branches that were predicted not taken incorrectly
system.cpu.iew.predictedTakenIncorrect            290                       # Number of branches that were predicted taken incorrectly
system.cpu.iew.wb_consumers                  22231914                       # num instructions consuming a value
system.cpu.iew.wb_count                      23357101                       # cumulative count of insts written-back
system.cpu.iew.wb_fanout                     0.705778                       # average fanout of values written-back
system.cpu.iew.wb_producers                  15690805                       # num instructions producing a value
system.cpu.iew.wb_rate                       3.328719                       # insts written-back per cycle
system.cpu.iew.wb_sent                       23357378                       # cumulative count of insts sent to commit
system.cpu.int_regfile_reads                 26023670                       # number of integer regfile reads
system.cpu.int_regfile_writes                13127759                       # number of integer regfile writes
system.cpu.ipc                               1.757060                       # IPC: Instructions Per Cycle
system.cpu.ipc_total                         1.757060                       # IPC: Total IPC of All Threads
system.cpu.iq.FU_type_0::No_OpClass               286      0.00%      0.00% # Type of FU issued
system.cpu.iq.FU_type_0::IntAlu              15419898     66.01%     66.01% # Type of FU issued
system.cpu.iq.FU_type_0::IntMult                    5      0.00%     66.01% # Type of FU issued
system.cpu.iq.FU_type_0::IntDiv                    22      0.00%     66.01% # Type of FU issued
system.cpu.iq.FU_type_0::FloatAdd              524405      2.24%     68.26% # Type of FU issued
system.cpu.iq.FU_type_0::FloatCmp                   0      0.00%     68.26% # Type of FU issued
system.cpu.iq.FU_type_0::FloatCvt                   0      0.00%     68.26% # Type of FU issued
system.cpu.iq.FU_type_0::FloatMult                  0      0.00%     68.26% # Type of FU issued
system.cpu.iq.FU_type_0::FloatMultAcc               0      0.00%     68.26% # Type of FU issued
system.cpu.iq.FU_type_0::FloatDiv                   0      0.00%     68.26% # Type of FU issued
system.cpu.iq.FU_type_0::FloatMisc                  0      0.00%     68.26% # Type of FU issued
system.cpu.iq.FU_type_0::FloatSqrt                  0      0.00%     68.26% # Type of FU issued
system.cpu.iq.FU_type_0::SimdAdd                    0      0.00%     68.26% # Type of FU issued
system.cpu.iq.FU_type_0::SimdAddAcc                 0      0.00%     68.26% # Type of FU issued
system.cpu.iq.FU_type_0::SimdAlu                   70      0.00%     68.26% # Type of FU issued
system.cpu.iq.FU_type_0::SimdCmp                    0      0.00%     68.26% # Type of FU issued
system.cpu.iq.FU_type_0::SimdCvt                   47      0.00%     68.26% # Type of FU issued
system.cpu.iq.FU_type_0::SimdMisc              524347      2.24%     70.50% # Type of FU issued
system.cpu.iq.FU_type_0::SimdMult                   0      0.00%     70.50% # Type of FU issued
system.cpu.iq.FU_type_0::SimdMultAcc                0      0.00%     70.50% # Type of FU issued
system.cpu.iq.FU_type_0::SimdShift                  0      0.00%     70.50% # Type of FU issued
system.cpu.iq.FU_type_0::SimdShiftAcc               0      0.00%     70.50% # Type of FU issued
system.cpu.iq.FU_type_0::SimdDiv                    0      0.00%     70.50% # Type of FU issued
system.cpu.iq.FU_type_0::SimdSqrt                   0      0.00%     70.50% # Type of FU issued
system.cpu.iq.FU_type_0::SimdFloatAdd         1048576      4.49%     74.99% # Type of FU issued
system.cpu.iq.FU_type_0::SimdFloatAlu               0      0.00%     74.99% # Type of FU issued
system.cpu.iq.FU_type_0::SimdFloatCmp               0      0.00%     74.99% # Type of FU issued
system.cpu.iq.FU_type_0::SimdFloatCvt               0      0.00%     74.99% # Type of FU issued
system.cpu.iq.FU_type_0::SimdFloatDiv               0      0.00%     74.99% # Type of FU issued
system.cpu.iq.FU_type_0::SimdFloatMisc              0      0.00%     74.99% # Type of FU issued
system.cpu.iq.FU_type_0::SimdFloatMult        1048580      4.49%     79.48% # Type of FU issued
system.cpu.iq.FU_type_0::SimdFloatMultAcc            0      0.00%     79.48% # Type of FU issued
system.cpu.iq.FU_type_0::SimdFloatSqrt              0      0.00%     79.48% # Type of FU issued
system.cpu.iq.FU_type_0::SimdReduceAdd              0      0.00%     79.48% # Type of FU issued
system.cpu.iq.FU_type_0::SimdReduceAlu              0      0.00%     79.48% # Type of FU issued
system.cpu.iq.FU_type_0::SimdReduceCmp              0      0.00%     79.48% # Type of FU issued
system.cpu.iq.FU_type_0::SimdFloatReduceAdd            0      0.00%     79.48% # Type of FU issued
system.cpu.iq.FU_type_0::SimdFloatReduceCmp            0      0.00%     79.48% # Type of FU issued
system.cpu.iq.FU_type_0::SimdAes                    0      0.00%     79.48% # Type of FU issued
system.cpu.iq.FU_type_0::SimdAesMix                 0      0.00%     79.48% # Type of FU issued
system.cpu.iq.FU_type_0::SimdSha1Hash               0      0.00%     79.48% # Type of FU issued
system.cpu.iq.FU_type_0::SimdSha1Hash2              0      0.00%     79.48% # Type of FU issued
system.cpu.iq.FU_type_0::SimdSha256Hash             0      0.00%     79.48% # Type of FU issued
system.cpu.iq.FU_type_0::SimdSha256Hash2            0      0.00%     79.48% # Type of FU issued
system.cpu.iq.FU_type_0::SimdShaSigma2              0      0.00%     79.48% # Type of FU issued
system.cpu.iq.FU_type_0::SimdShaSigma3              0      0.00%     79.48% # Type of FU issued
system.cpu.iq.FU_type_0::SimdPredAlu                0      0.00%     79.48% # Type of FU issued
system.cpu.iq.FU_type_0::MemRead              1185202      5.07%     84.55% # Type of FU issued
system.cpu.iq.FU_type_0::MemWrite              200027      0.86%     85.41% # Type of FU issued
system.cpu.iq.FU_type_0::FloatMemRead         2359407     10.10%     95.51% # Type of FU issued
system.cpu.iq.FU_type_0::FloatMemWrite        1048733      4.49%    100.00% # Type of FU issued
system.cpu.iq.FU_type_0::IprAccess                  0      0.00%    100.00% # Type of FU issued
system.cpu.iq.FU_type_0::InstPrefetch               0      0.00%    100.00% # Type of FU issued
system.cpu.iq.FU_type_0::total               23359605                       # Type of FU issued
system.cpu.iq.fp_alu_accesses                 8389321                       # Number of floating point alu accesses
system.cpu.iq.fp_inst_queue_reads            16778535                       # Number of floating instruction queue reads
system.cpu.iq.fp_inst_queue_wakeup_accesses      8389138                       # Number of floating instruction queue wakeup accesses
system.cpu.iq.fp_inst_queue_writes            8390590                       # Number of floating instruction queue writes
system.cpu.iq.fu_busy_cnt                       92911                       # FU busy when requested
system.cpu.iq.fu_busy_rate                   0.003977                       # FU busy rate (busy events/executed inst)
system.cpu.iq.fu_full::No_OpClass                   0      0.00%      0.00% # attempts to use FU when none available
system.cpu.iq.fu_full::IntAlu                   60029     64.61%     64.61% # attempts to use FU when none available
system.cpu.iq.fu_full::IntMult                      0      0.00%     64.61% # attempts to use FU when none available
system.cpu.iq.fu_full::IntDiv                       0      0.00%     64.61% # attempts to use FU when none available
system.cpu.iq.fu_full::FloatAdd                     0      0.00%     64.61% # attempts to use FU when none available
system.cpu.iq.fu_full::FloatCmp                     0      0.00%     64.61% # attempts to use FU when none available
system.cpu.iq.fu_full::FloatCvt                     0      0.00%     64.61% # attempts to use FU when none available
system.cpu.iq.fu_full::FloatMult                    0      0.00%     64.61% # attempts to use FU when none available
system.cpu.iq.fu_full::FloatMultAcc                 0      0.00%     64.61% # attempts to use FU when none available
system.cpu.iq.fu_full::FloatDiv                     0      0.00%     64.61% # attempts to use FU when none available
system.cpu.iq.fu_full::FloatMisc                    0      0.00%     64.61% # attempts to use FU when none available
system.cpu.iq.fu_full::FloatSqrt                    0      0.00%     64.61% # attempts to use FU when none available
system.cpu.iq.fu_full::SimdAdd                      0      0.00%     64.61% # attempts to use FU when none available
system.cpu.iq.fu_full::SimdAddAcc                   0      0.00%     64.61% # attempts to use FU when none available
system.cpu.iq.fu_full::SimdAlu                      3      0.00%     64.61% # attempts to use FU when none available
system.cpu.iq.fu_full::SimdCmp                      0      0.00%     64.61% # attempts to use FU when none available
system.cpu.iq.fu_full::SimdCvt                      0      0.00%     64.61% # attempts to use FU when none available
system.cpu.iq.fu_full::SimdMisc                     1      0.00%     64.61% # attempts to use FU when none available
system.cpu.iq.fu_full::SimdMult                     0      0.00%     64.61% # attempts to use FU when none available
system.cpu.iq.fu_full::SimdMultAcc                  0      0.00%     64.61% # attempts to use FU when none available
system.cpu.iq.fu_full::SimdShift                    0      0.00%     64.61% # attempts to use FU when none available
system.cpu.iq.fu_full::SimdShiftAcc                 0      0.00%     64.61% # attempts to use FU when none available
system.cpu.iq.fu_full::SimdDiv                      0      0.00%     64.61% # attempts to use FU when none available
system.cpu.iq.fu_full::SimdSqrt                     0      0.00%     64.61% # attempts to use FU when none available
system.cpu.iq.fu_full::SimdFloatAdd                 0      0.00%     64.61% # attempts to use FU when none available
system.cpu.iq.fu_full::SimdFloatAlu                 0      0.00%     64.61% # attempts to use FU when none available
system.cpu.iq.fu_full::SimdFloatCmp                 0      0.00%     64.61% # attempts to use FU when none available
system.cpu.iq.fu_full::SimdFloatCvt                 0      0.00%     64.61% # attempts to use FU when none available
system.cpu.iq.fu_full::SimdFloatDiv                 0      0.00%     64.61% # attempts to use FU when none available
system.cpu.iq.fu_full::SimdFloatMisc                0      0.00%     64.61% # attempts to use FU when none available
system.cpu.iq.fu_full::SimdFloatMult               95      0.10%     64.72% # attempts to use FU when none available
system.cpu.iq.fu_full::SimdFloatMultAcc             0      0.00%     64.72% # attempts to use FU when none available
system.cpu.iq.fu_full::SimdFloatSqrt                0      0.00%     64.72% # attempts to use FU when none available
system.cpu.iq.fu_full::SimdReduceAdd                0      0.00%     64.72% # attempts to use FU when none available
system.cpu.iq.fu_full::SimdReduceAlu                0      0.00%     64.72% # attempts to use FU when none available
system.cpu.iq.fu_full::SimdReduceCmp                0      0.00%     64.72% # attempts to use FU when none available
system.cpu.iq.fu_full::SimdFloatReduceAdd            0      0.00%     64.72% # attempts to use FU when none available
system.cpu.iq.fu_full::SimdFloatReduceCmp            0      0.00%     64.72% # attempts to use FU when none available
system.cpu.iq.fu_full::SimdAes                      0      0.00%     64.72% # attempts to use FU when none available
system.cpu.iq.fu_full::SimdAesMix                   0      0.00%     64.72% # attempts to use FU when none available
system.cpu.iq.fu_full::SimdSha1Hash                 0      0.00%     64.72% # attempts to use FU when none available
system.cpu.iq.fu_full::SimdSha1Hash2                0      0.00%     64.72% # attempts to use FU when none available
system.cpu.iq.fu_full::SimdSha256Hash               0      0.00%     64.72% # attempts to use FU when none available
system.cpu.iq.fu_full::SimdSha256Hash2              0      0.00%     64.72% # attempts to use FU when none available
system.cpu.iq.fu_full::SimdShaSigma2                0      0.00%     64.72% # attempts to use FU when none available
system.cpu.iq.fu_full::SimdShaSigma3                0      0.00%     64.72% # attempts to use FU when none available
system.cpu.iq.fu_full::SimdPredAlu                  0      0.00%     64.72% # attempts to use FU when none available
system.cpu.iq.fu_full::MemRead                  32749     35.25%     99.96% # attempts to use FU when none available
system.cpu.iq.fu_full::MemWrite                    28      0.03%     99.99% # attempts to use FU when none available
system.cpu.iq.fu_full::FloatMemRead                 1      0.00%     99.99% # attempts to use FU when none available
system.cpu.iq.fu_full::FloatMemWrite                5      0.01%    100.00% # attempts to use FU when none available
system.cpu.iq.fu_full::IprAccess                    0      0.00%    100.00% # attempts to use FU when none available
system.cpu.iq.fu_full::InstPrefetch                 0      0.00%    100.00% # attempts to use FU when none available
system.cpu.iq.int_alu_accesses               15062909                       # Number of integer alu accesses
system.cpu.iq.int_inst_queue_reads           37038312                       # Number of integer instruction queue reads
system.cpu.iq.int_inst_queue_wakeup_accesses     14967963                       # Number of integer instruction queue wakeup accesses
system.cpu.iq.int_inst_queue_writes          15000611                       # Number of integer instruction queue writes
system.cpu.iq.iqInstsAdded                   23368770                       # Number of instructions added to the IQ (excludes non-spec)
system.cpu.iq.iqInstsIssued                  23359605                       # Number of instructions issued
system.cpu.iq.iqNonSpecInstsAdded                  83                       # Number of non-speculative instructions added to the IQ
system.cpu.iq.iqSquashedInstsExamined           22223                       # Number of squashed instructions iterated over during squash; mainly for profiling
system.cpu.iq.iqSquashedInstsIssued                84                       # Number of squashed instructions issued
system.cpu.iq.iqSquashedNonSpecRemoved             74                       # Number of squashed non-spec instructions that were removed
system.cpu.iq.iqSquashedOperandsExamined        34941                       # Number of squashed operands that are examined and possibly removed from graph
system.cpu.iq.issued_per_cycle::samples       7004642                       # Number of insts issued each cycle
system.cpu.iq.issued_per_cycle::mean         3.334875                       # Number of insts issued each cycle
system.cpu.iq.issued_per_cycle::stdev        2.214156                       # Number of insts issued each cycle
system.cpu.iq.issued_per_cycle::underflows            0      0.00%      0.00% # Number of insts issued each cycle
system.cpu.iq.issued_per_cycle::0              385826      5.51%      5.51% # Number of insts issued each cycle
system.cpu.iq.issued_per_cycle::1             1270881     18.14%     23.65% # Number of insts issued each cycle
system.cpu.iq.issued_per_cycle::2             1588944     22.68%     46.34% # Number of insts issued each cycle
system.cpu.iq.issued_per_cycle::3              555093      7.92%     54.26% # Number of insts issued each cycle
system.cpu.iq.issued_per_cycle::4             1415525     20.21%     74.47% # Number of insts issued each cycle
system.cpu.iq.issued_per_cycle::5              387261      5.53%     80.00% # Number of insts issued each cycle
system.cpu.iq.issued_per_cycle::6              522043      7.45%     87.45% # Number of insts issued each cycle
system.cpu.iq.issued_per_cycle::7              517658      7.39%     94.84% # Number of insts issued each cycle
system.cpu.iq.issued_per_cycle::8              361411      5.16%    100.00% # Number of insts issued each cycle
system.cpu.iq.issued_per_cycle::overflows            0      0.00%    100.00% # Number of insts issued each cycle
system.cpu.iq.issued_per_cycle::min_value            0                       # Number of insts issued each cycle
system.cpu.iq.issued_per_cycle::max_value            8                       # Number of insts issued each cycle
system.cpu.iq.issued_per_cycle::total         7004642                       # Number of insts issued each cycle
system.cpu.iq.rate                           3.329076                       # Inst issue rate
system.cpu.iq.vec_alu_accesses                      0                       # Number of vector alu accesses
system.cpu.iq.vec_inst_queue_reads                  0                       # Number of vector instruction queue reads
system.cpu.iq.vec_inst_queue_wakeup_accesses            0                       # Number of vector instruction queue wakeup accesses
system.cpu.iq.vec_inst_queue_writes                 0                       # Number of vector instruction queue writes
system.cpu.itb.rdAccesses                           0                       # TLB accesses on read requests
system.cpu.itb.rdMisses                             0                       # TLB misses on read requests
system.cpu.itb.wrAccesses                     2429247                       # TLB accesses on write requests
system.cpu.itb.wrMisses                            44                       # TLB misses on write requests
system.cpu.memDep0.conflictingLoads            718949                       # Number of conflicting loads.
system.cpu.memDep0.conflictingStores           838829                       # Number of conflicting stores.
system.cpu.memDep0.insertedLoads              3545387                       # Number of loads inserted to the mem dependence unit.
system.cpu.memDep0.insertedStores             1250076                       # Number of stores inserted to the mem dependence unit.
system.cpu.misc_regfile_reads                 8008305                       # number of misc regfile reads
system.cpu.misc_regfile_writes                      2                       # number of misc regfile writes
system.cpu.numCycles                          7016844                       # number of cpu cycles simulated
system.cpu.numWorkItemsCompleted                    0                       # number of work items this cpu completed
system.cpu.numWorkItemsStarted                      0                       # number of work items this cpu started
system.cpu.rename.BlockCycles                  148791                       # Number of cycles rename is blocking
system.cpu.rename.CommittedMaps              30360019                       # Number of HB maps that are committed
system.cpu.rename.IQFullEvents                   5532                       # Number of times rename has blocked due to IQ full
system.cpu.rename.IdleCycles                  2676565                       # Number of cycles rename is idle
system.cpu.rename.LQFullEvents                   2104                       # Number of times rename has blocked due to LQ full
system.cpu.rename.ROBFullEvents                 13951                       # Number of times rename has blocked due to ROB full
system.cpu.rename.RenameLookups              54083499                       # Number of register rename lookups that rename has made
system.cpu.rename.RenamedInsts               23377747                       # Number of instructions processed by rename
system.cpu.rename.RenamedOperands            30398627                       # Number of destination operands rename has renamed
system.cpu.rename.RunCycles                   4144995                       # Number of cycles rename is running
system.cpu.rename.SQFullEvents                   3585                       # Number of times rename has blocked due to SQ full
system.cpu.rename.SquashCycles                    963                       # Number of cycles rename is squashing
system.cpu.rename.UnblockCycles                 32441                       # Number of cycles rename is unblocking
system.cpu.rename.UndoneMaps                    38608                       # Number of HB maps that are undone due to squashing
system.cpu.rename.fp_rename_lookups          12060446                       # Number of floating rename lookups
system.cpu.rename.int_rename_lookups         26059226                       # Number of integer rename lookups
system.cpu.rename.serializeStallCycles            887                       # count of cycles rename stalled for serializing inst
system.cpu.rename.serializingInsts                 24                       # count of serializing insts renamed
system.cpu.rename.skidInsts                     95922                       # count of insts added to the skid buffer
system.cpu.rename.tempSerializingInsts             20                       # count of temporary serializing insts renamed
system.cpu.rob.rob_reads                     29016740                       # The number of ROB reads
system.cpu.rob.rob_writes                    46741162                       # The number of ROB writes
system.cpu.timesIdled                             175                       # Number of times that the entire CPU went into an idle state and unscheduled itself
system.cpu.workload.numSyscalls                     7                       # Number of system calls
system.l2bus.snoop_filter.hit_multi_requests            1                       # Number of requests hitting in the snoop filter with multiple (>1) holders of the requested data.
system.l2bus.snoop_filter.hit_multi_snoops            0                       # Number of snoops hitting in the snoop filter with multiple (>1) holders of the requested data.
system.l2bus.snoop_filter.hit_single_requests         5129                       # Number of requests hitting in the snoop filter with a single holder of the requested data.
system.l2bus.snoop_filter.hit_single_snoops            0                       # Number of snoops hitting in the snoop filter with a single holder of the requested data.
system.l2bus.snoop_filter.tot_requests          12632                       # Total number of requests made to the snoop filter.
system.l2bus.snoop_filter.tot_snoops                0                       # Total number of snoops made to the snoop filter.
system.membus.snoop_filter.hit_multi_requests            0                       # Number of requests hitting in the snoop filter with multiple (>1) holders of the requested data.
system.membus.snoop_filter.hit_multi_snoops            0                       # Number of snoops hitting in the snoop filter with multiple (>1) holders of the requested data.
system.membus.snoop_filter.hit_single_requests            0                       # Number of requests hitting in the snoop filter with a single holder of the requested data.
system.membus.snoop_filter.hit_single_snoops            0                       # Number of snoops hitting in the snoop filter with a single holder of the requested data.
system.membus.snoop_filter.tot_requests          3563                       # Total number of requests made to the snoop filter.
system.membus.snoop_filter.tot_snoops               0                       # Total number of snoops made to the snoop filter.
system.membus.pwrStateResidencyTicks::UNDEFINED   7016843000                       # Cumulative time (in ticks) in various power states
system.membus.trans_dist::ReadResp               3471                       # Transaction distribution
system.membus.trans_dist::ReadExReq                91                       # Transaction distribution
system.membus.trans_dist::ReadExResp               91                       # Transaction distribution
system.membus.trans_dist::ReadSharedReq          3472                       # Transaction distribution
system.membus.pkt_count_system.l2cache.mem_side::system.mem_ctrl.port         7125                       # Packet count per connected master and slave (bytes)
system.membus.pkt_count_system.l2cache.mem_side::total         7125                       # Packet count per connected master and slave (bytes)
system.membus.pkt_count::total                   7125                       # Packet count per connected master and slave (bytes)
system.membus.pkt_size_system.l2cache.mem_side::system.mem_ctrl.port       227968                       # Cumulative packet size per connected master and slave (bytes)
system.membus.pkt_size_system.l2cache.mem_side::total       227968                       # Cumulative packet size per connected master and slave (bytes)
system.membus.pkt_size::total                  227968                       # Cumulative packet size per connected master and slave (bytes)
system.membus.snoops                                0                       # Total snoops (count)
system.membus.snoopTraffic                          0                       # Total snoop traffic (bytes)
system.membus.snoop_fanout::samples              3563                       # Request fanout histogram
system.membus.snoop_fanout::mean                    0                       # Request fanout histogram
system.membus.snoop_fanout::stdev                   0                       # Request fanout histogram
system.membus.snoop_fanout::underflows              0      0.00%      0.00% # Request fanout histogram
system.membus.snoop_fanout::0                    3563    100.00%    100.00% # Request fanout histogram
system.membus.snoop_fanout::1                       0      0.00%    100.00% # Request fanout histogram
system.membus.snoop_fanout::overflows               0      0.00%    100.00% # Request fanout histogram
system.membus.snoop_fanout::min_value               0                       # Request fanout histogram
system.membus.snoop_fanout::max_value               0                       # Request fanout histogram
system.membus.snoop_fanout::total                3563                       # Request fanout histogram
system.membus.reqLayer2.occupancy             3563000                       # Layer occupancy (ticks)
system.membus.reqLayer2.utilization               0.1                       # Layer utilization (%)
system.membus.respLayer0.occupancy           18863250                       # Layer occupancy (ticks)
system.membus.respLayer0.utilization              0.3                       # Layer utilization (%)
system.l2bus.pwrStateResidencyTicks::UNDEFINED   7016843000                       # Cumulative time (in ticks) in various power states
system.l2bus.trans_dist::ReadResp                7406                       # Transaction distribution
system.l2bus.trans_dist::WritebackDirty           276                       # Transaction distribution
system.l2bus.trans_dist::CleanEvict              4853                       # Transaction distribution
system.l2bus.trans_dist::ReadExReq                 95                       # Transaction distribution
system.l2bus.trans_dist::ReadExResp                95                       # Transaction distribution
system.l2bus.trans_dist::ReadSharedReq           7408                       # Transaction distribution
system.l2bus.pkt_count_system.cpu.icache.mem_side::system.l2cache.cpu_side          649                       # Packet count per connected master and slave (bytes)
system.l2bus.pkt_count_system.cpu.dcache.mem_side::system.l2cache.cpu_side        19484                       # Packet count per connected master and slave (bytes)
system.l2bus.pkt_count::total                   20133                       # Packet count per connected master and slave (bytes)
system.l2bus.pkt_size_system.cpu.icache.mem_side::system.l2cache.cpu_side        20736                       # Cumulative packet size per connected master and slave (bytes)
system.l2bus.pkt_size_system.cpu.dcache.mem_side::system.l2cache.cpu_side       476992                       # Cumulative packet size per connected master and slave (bytes)
system.l2bus.pkt_size::total                   497728                       # Cumulative packet size per connected master and slave (bytes)
system.l2bus.snoops                                 0                       # Total snoops (count)
system.l2bus.snoopTraffic                           0                       # Total snoop traffic (bytes)
system.l2bus.snoop_fanout::samples               7503                       # Request fanout histogram
system.l2bus.snoop_fanout::mean              0.000133                       # Request fanout histogram
system.l2bus.snoop_fanout::stdev             0.011545                       # Request fanout histogram
system.l2bus.snoop_fanout::underflows               0      0.00%      0.00% # Request fanout histogram
system.l2bus.snoop_fanout::0                     7502     99.99%     99.99% # Request fanout histogram
system.l2bus.snoop_fanout::1                        1      0.01%    100.00% # Request fanout histogram
system.l2bus.snoop_fanout::2                        0      0.00%    100.00% # Request fanout histogram
system.l2bus.snoop_fanout::overflows                0      0.00%    100.00% # Request fanout histogram
system.l2bus.snoop_fanout::min_value                0                       # Request fanout histogram
system.l2bus.snoop_fanout::max_value                1                       # Request fanout histogram
system.l2bus.snoop_fanout::total                 7503                       # Request fanout histogram
system.l2bus.respLayer1.occupancy            21531000                       # Layer occupancy (ticks)
system.l2bus.respLayer1.utilization               0.3                       # Layer utilization (%)
system.l2bus.reqLayer0.occupancy             13184000                       # Layer occupancy (ticks)
system.l2bus.reqLayer0.utilization                0.2                       # Layer utilization (%)
system.l2bus.respLayer0.occupancy              972000                       # Layer occupancy (ticks)
system.l2bus.respLayer0.utilization               0.0                       # Layer utilization (%)
system.clk_domain.clock                          1000                       # Clock period in ticks
system.clk_domain.voltage_domain.voltage            1                       # Voltage in Volts
system.cpu.pwrStateResidencyTicks::ON      7016843000                       # Cumulative time (in ticks) in various power states
system.cpu.icache.pwrStateResidencyTicks::UNDEFINED   7016843000                       # Cumulative time (in ticks) in various power states
system.cpu.icache.demand_hits::.cpu.inst      2428797                       # number of demand (read+write) hits
system.cpu.icache.demand_hits::total          2428797                       # number of demand (read+write) hits
system.cpu.icache.overall_hits::.cpu.inst      2428797                       # number of overall hits
system.cpu.icache.overall_hits::total         2428797                       # number of overall hits
system.cpu.icache.demand_misses::.cpu.inst          437                       # number of demand (read+write) misses
system.cpu.icache.demand_misses::total            437                       # number of demand (read+write) misses
system.cpu.icache.overall_misses::.cpu.inst          437                       # number of overall misses
system.cpu.icache.overall_misses::total           437                       # number of overall misses
system.cpu.icache.demand_miss_latency::.cpu.inst     41694000                       # number of demand (read+write) miss cycles
system.cpu.icache.demand_miss_latency::total     41694000                       # number of demand (read+write) miss cycles
system.cpu.icache.overall_miss_latency::.cpu.inst     41694000                       # number of overall miss cycles
system.cpu.icache.overall_miss_latency::total     41694000                       # number of overall miss cycles
system.cpu.icache.demand_accesses::.cpu.inst      2429234                       # number of demand (read+write) accesses
system.cpu.icache.demand_accesses::total      2429234                       # number of demand (read+write) accesses
system.cpu.icache.overall_accesses::.cpu.inst      2429234                       # number of overall (read+write) accesses
system.cpu.icache.overall_accesses::total      2429234                       # number of overall (read+write) accesses
system.cpu.icache.demand_miss_rate::.cpu.inst     0.000180                       # miss rate for demand accesses
system.cpu.icache.demand_miss_rate::total     0.000180                       # miss rate for demand accesses
system.cpu.icache.overall_miss_rate::.cpu.inst     0.000180                       # miss rate for overall accesses
system.cpu.icache.overall_miss_rate::total     0.000180                       # miss rate for overall accesses
system.cpu.icache.demand_avg_miss_latency::.cpu.inst 95409.610984                       # average overall miss latency
system.cpu.icache.demand_avg_miss_latency::total 95409.610984                       # average overall miss latency
system.cpu.icache.overall_avg_miss_latency::.cpu.inst 95409.610984                       # average overall miss latency
system.cpu.icache.overall_avg_miss_latency::total 95409.610984                       # average overall miss latency
system.cpu.icache.blocked_cycles::no_mshrs          128                       # number of cycles access was blocked
system.cpu.icache.blocked_cycles::no_targets            0                       # number of cycles access was blocked
system.cpu.icache.blocked::no_mshrs                 5                       # number of cycles access was blocked
system.cpu.icache.blocked::no_targets               0                       # number of cycles access was blocked
system.cpu.icache.avg_blocked_cycles::no_mshrs    25.600000                       # average number of cycles each access was blocked
system.cpu.icache.avg_blocked_cycles::no_targets          nan                       # average number of cycles each access was blocked
system.cpu.icache.demand_mshr_hits::.cpu.inst          112                       # number of demand (read+write) MSHR hits
system.cpu.icache.demand_mshr_hits::total          112                       # number of demand (read+write) MSHR hits
system.cpu.icache.overall_mshr_hits::.cpu.inst          112                       # number of overall MSHR hits
system.cpu.icache.overall_mshr_hits::total          112                       # number of overall MSHR hits
system.cpu.icache.demand_mshr_misses::.cpu.inst          325                       # number of demand (read+write) MSHR misses
system.cpu.icache.demand_mshr_misses::total          325                       # number of demand (read+write) MSHR misses
system.cpu.icache.overall_mshr_misses::.cpu.inst          325                       # number of overall MSHR misses
system.cpu.icache.overall_mshr_misses::total          325                       # number of overall MSHR misses
system.cpu.icache.demand_mshr_miss_latency::.cpu.inst     33044000                       # number of demand (read+write) MSHR miss cycles
system.cpu.icache.demand_mshr_miss_latency::total     33044000                       # number of demand (read+write) MSHR miss cycles
system.cpu.icache.overall_mshr_miss_latency::.cpu.inst     33044000                       # number of overall MSHR miss cycles
system.cpu.icache.overall_mshr_miss_latency::total     33044000                       # number of overall MSHR miss cycles
system.cpu.icache.demand_mshr_miss_rate::.cpu.inst     0.000134                       # mshr miss rate for demand accesses
system.cpu.icache.demand_mshr_miss_rate::total     0.000134                       # mshr miss rate for demand accesses
system.cpu.icache.overall_mshr_miss_rate::.cpu.inst     0.000134                       # mshr miss rate for overall accesses
system.cpu.icache.overall_mshr_miss_rate::total     0.000134                       # mshr miss rate for overall accesses
system.cpu.icache.demand_avg_mshr_miss_latency::.cpu.inst 101673.846154                       # average overall mshr miss latency
system.cpu.icache.demand_avg_mshr_miss_latency::total 101673.846154                       # average overall mshr miss latency
system.cpu.icache.overall_avg_mshr_miss_latency::.cpu.inst 101673.846154                       # average overall mshr miss latency
system.cpu.icache.overall_avg_mshr_miss_latency::total 101673.846154                       # average overall mshr miss latency
system.cpu.icache.replacements                      0                       # number of replacements
system.cpu.icache.ReadReq_hits::.cpu.inst      2428797                       # number of ReadReq hits
system.cpu.icache.ReadReq_hits::total         2428797                       # number of ReadReq hits
system.cpu.icache.ReadReq_misses::.cpu.inst          437                       # number of ReadReq misses
system.cpu.icache.ReadReq_misses::total           437                       # number of ReadReq misses
system.cpu.icache.ReadReq_miss_latency::.cpu.inst     41694000                       # number of ReadReq miss cycles
system.cpu.icache.ReadReq_miss_latency::total     41694000                       # number of ReadReq miss cycles
system.cpu.icache.ReadReq_accesses::.cpu.inst      2429234                       # number of ReadReq accesses(hits+misses)
system.cpu.icache.ReadReq_accesses::total      2429234                       # number of ReadReq accesses(hits+misses)
system.cpu.icache.ReadReq_miss_rate::.cpu.inst     0.000180                       # miss rate for ReadReq accesses
system.cpu.icache.ReadReq_miss_rate::total     0.000180                       # miss rate for ReadReq accesses
system.cpu.icache.ReadReq_avg_miss_latency::.cpu.inst 95409.610984                       # average ReadReq miss latency
system.cpu.icache.ReadReq_avg_miss_latency::total 95409.610984                       # average ReadReq miss latency
system.cpu.icache.ReadReq_mshr_hits::.cpu.inst          112                       # number of ReadReq MSHR hits
system.cpu.icache.ReadReq_mshr_hits::total          112                       # number of ReadReq MSHR hits
system.cpu.icache.ReadReq_mshr_misses::.cpu.inst          325                       # number of ReadReq MSHR misses
system.cpu.icache.ReadReq_mshr_misses::total          325                       # number of ReadReq MSHR misses
system.cpu.icache.ReadReq_mshr_miss_latency::.cpu.inst     33044000                       # number of ReadReq MSHR miss cycles
system.cpu.icache.ReadReq_mshr_miss_latency::total     33044000                       # number of ReadReq MSHR miss cycles
system.cpu.icache.ReadReq_mshr_miss_rate::.cpu.inst     0.000134                       # mshr miss rate for ReadReq accesses
system.cpu.icache.ReadReq_mshr_miss_rate::total     0.000134                       # mshr miss rate for ReadReq accesses
system.cpu.icache.ReadReq_avg_mshr_miss_latency::.cpu.inst 101673.846154                       # average ReadReq mshr miss latency
system.cpu.icache.ReadReq_avg_mshr_miss_latency::total 101673.846154                       # average ReadReq mshr miss latency
system.cpu.icache.tags.pwrStateResidencyTicks::UNDEFINED   7016843000                       # Cumulative time (in ticks) in various power states
system.cpu.icache.tags.tagsinuse           302.323640                       # Cycle average of tags in use
system.cpu.icache.tags.total_refs             2429121                       # Total number of references to valid blocks.
system.cpu.icache.tags.sampled_refs               324                       # Sample count of references to valid blocks.
system.cpu.icache.tags.avg_refs           7497.287037                       # Average number of references to valid blocks.
system.cpu.icache.tags.warmup_cycle            107000                       # Cycle when the warmup percentage was hit.
system.cpu.icache.tags.occ_blocks::.cpu.inst   302.323640                       # Average occupied blocks per requestor
system.cpu.icache.tags.occ_percent::.cpu.inst     0.147619                       # Average percentage of cache occupancy
system.cpu.icache.tags.occ_percent::total     0.147619                       # Average percentage of cache occupancy
system.cpu.icache.tags.occ_task_id_blocks::1024          324                       # Occupied blocks per task id
system.cpu.icache.tags.age_task_id_blocks_1024::0           21                       # Occupied blocks per task id
system.cpu.icache.tags.age_task_id_blocks_1024::3          303                       # Occupied blocks per task id
system.cpu.icache.tags.occ_task_id_percent::1024     0.158203                       # Percentage of cache occupancy per task id
system.cpu.icache.tags.tag_accesses           4858792                       # Number of tag accesses
system.cpu.icache.tags.data_accesses          4858792                       # Number of data accesses
system.cpu.dtb.walker.pwrStateResidencyTicks::UNDEFINED   7016843000                       # Cumulative time (in ticks) in various power states
system.cpu.interrupts.clk_domain.clock          16000                       # Clock period in ticks
system.cpu.itb.walker.pwrStateResidencyTicks::UNDEFINED   7016843000                       # Cumulative time (in ticks) in various power states
system.cpu.dcache.pwrStateResidencyTicks::UNDEFINED   7016843000                       # Cumulative time (in ticks) in various power states
system.cpu.dcache.demand_hits::.cpu.data      4668995                       # number of demand (read+write) hits
system.cpu.dcache.demand_hits::total          4668995                       # number of demand (read+write) hits
system.cpu.dcache.overall_hits::.cpu.data      4668995                       # number of overall hits
system.cpu.dcache.overall_hits::total         4668995                       # number of overall hits
system.cpu.dcache.demand_misses::.cpu.data        20152                       # number of demand (read+write) misses
system.cpu.dcache.demand_misses::total          20152                       # number of demand (read+write) misses
system.cpu.dcache.overall_misses::.cpu.data        20152                       # number of overall misses
system.cpu.dcache.overall_misses::total         20152                       # number of overall misses
system.cpu.dcache.demand_miss_latency::.cpu.data   1163844000                       # number of demand (read+write) miss cycles
system.cpu.dcache.demand_miss_latency::total   1163844000                       # number of demand (read+write) miss cycles
system.cpu.dcache.overall_miss_latency::.cpu.data   1163844000                       # number of overall miss cycles
system.cpu.dcache.overall_miss_latency::total   1163844000                       # number of overall miss cycles
system.cpu.dcache.demand_accesses::.cpu.data      4689147                       # number of demand (read+write) accesses
system.cpu.dcache.demand_accesses::total      4689147                       # number of demand (read+write) accesses
system.cpu.dcache.overall_accesses::.cpu.data      4689147                       # number of overall (read+write) accesses
system.cpu.dcache.overall_accesses::total      4689147                       # number of overall (read+write) accesses
system.cpu.dcache.demand_miss_rate::.cpu.data     0.004298                       # miss rate for demand accesses
system.cpu.dcache.demand_miss_rate::total     0.004298                       # miss rate for demand accesses
system.cpu.dcache.overall_miss_rate::.cpu.data     0.004298                       # miss rate for overall accesses
system.cpu.dcache.overall_miss_rate::total     0.004298                       # miss rate for overall accesses
system.cpu.dcache.demand_avg_miss_latency::.cpu.data 57753.275109                       # average overall miss latency
system.cpu.dcache.demand_avg_miss_latency::total 57753.275109                       # average overall miss latency
system.cpu.dcache.overall_avg_miss_latency::.cpu.data 57753.275109                       # average overall miss latency
system.cpu.dcache.overall_avg_miss_latency::total 57753.275109                       # average overall miss latency
system.cpu.dcache.blocked_cycles::no_mshrs          762                       # number of cycles access was blocked
system.cpu.dcache.blocked_cycles::no_targets            0                       # number of cycles access was blocked
system.cpu.dcache.blocked::no_mshrs                18                       # number of cycles access was blocked
system.cpu.dcache.blocked::no_targets               0                       # number of cycles access was blocked
system.cpu.dcache.avg_blocked_cycles::no_mshrs    42.333333                       # average number of cycles each access was blocked
system.cpu.dcache.avg_blocked_cycles::no_targets          nan                       # average number of cycles each access was blocked
system.cpu.dcache.writebacks::.writebacks          276                       # number of writebacks
system.cpu.dcache.writebacks::total               276                       # number of writebacks
system.cpu.dcache.demand_mshr_hits::.cpu.data        12974                       # number of demand (read+write) MSHR hits
system.cpu.dcache.demand_mshr_hits::total        12974                       # number of demand (read+write) MSHR hits
system.cpu.dcache.overall_mshr_hits::.cpu.data        12974                       # number of overall MSHR hits
system.cpu.dcache.overall_mshr_hits::total        12974                       # number of overall MSHR hits
system.cpu.dcache.demand_mshr_misses::.cpu.data         7178                       # number of demand (read+write) MSHR misses
system.cpu.dcache.demand_mshr_misses::total         7178                       # number of demand (read+write) MSHR misses
system.cpu.dcache.overall_mshr_misses::.cpu.data         7178                       # number of overall MSHR misses
system.cpu.dcache.overall_mshr_misses::total         7178                       # number of overall MSHR misses
system.cpu.dcache.demand_mshr_miss_latency::.cpu.data    422313000                       # number of demand (read+write) MSHR miss cycles
system.cpu.dcache.demand_mshr_miss_latency::total    422313000                       # number of demand (read+write) MSHR miss cycles
system.cpu.dcache.overall_mshr_miss_latency::.cpu.data    422313000                       # number of overall MSHR miss cycles
system.cpu.dcache.overall_mshr_miss_latency::total    422313000                       # number of overall MSHR miss cycles
system.cpu.dcache.demand_mshr_miss_rate::.cpu.data     0.001531                       # mshr miss rate for demand accesses
system.cpu.dcache.demand_mshr_miss_rate::total     0.001531                       # mshr miss rate for demand accesses
system.cpu.dcache.overall_mshr_miss_rate::.cpu.data     0.001531                       # mshr miss rate for overall accesses
system.cpu.dcache.overall_mshr_miss_rate::total     0.001531                       # mshr miss rate for overall accesses
system.cpu.dcache.demand_avg_mshr_miss_latency::.cpu.data 58834.354974                       # average overall mshr miss latency
system.cpu.dcache.demand_avg_mshr_miss_latency::total 58834.354974                       # average overall mshr miss latency
system.cpu.dcache.overall_avg_mshr_miss_latency::.cpu.data 58834.354974                       # average overall mshr miss latency
system.cpu.dcache.overall_avg_mshr_miss_latency::total 58834.354974                       # average overall mshr miss latency
system.cpu.dcache.replacements                   5129                       # number of replacements
system.cpu.dcache.ReadReq_hits::.cpu.data      3421292                       # number of ReadReq hits
system.cpu.dcache.ReadReq_hits::total         3421292                       # number of ReadReq hits
system.cpu.dcache.ReadReq_misses::.cpu.data        19994                       # number of ReadReq misses
system.cpu.dcache.ReadReq_misses::total         19994                       # number of ReadReq misses
system.cpu.dcache.ReadReq_miss_latency::.cpu.data   1150299000                       # number of ReadReq miss cycles
system.cpu.dcache.ReadReq_miss_latency::total   1150299000                       # number of ReadReq miss cycles
system.cpu.dcache.ReadReq_accesses::.cpu.data      3441286                       # number of ReadReq accesses(hits+misses)
system.cpu.dcache.ReadReq_accesses::total      3441286                       # number of ReadReq accesses(hits+misses)
system.cpu.dcache.ReadReq_miss_rate::.cpu.data     0.005810                       # miss rate for ReadReq accesses
system.cpu.dcache.ReadReq_miss_rate::total     0.005810                       # miss rate for ReadReq accesses
system.cpu.dcache.ReadReq_avg_miss_latency::.cpu.data 57532.209663                       # average ReadReq miss latency
system.cpu.dcache.ReadReq_avg_miss_latency::total 57532.209663                       # average ReadReq miss latency
system.cpu.dcache.ReadReq_mshr_hits::.cpu.data        12911                       # number of ReadReq MSHR hits
system.cpu.dcache.ReadReq_mshr_hits::total        12911                       # number of ReadReq MSHR hits
system.cpu.dcache.ReadReq_mshr_misses::.cpu.data         7083                       # number of ReadReq MSHR misses
system.cpu.dcache.ReadReq_mshr_misses::total         7083                       # number of ReadReq MSHR misses
system.cpu.dcache.ReadReq_mshr_miss_latency::.cpu.data    412479000                       # number of ReadReq MSHR miss cycles
system.cpu.dcache.ReadReq_mshr_miss_latency::total    412479000                       # number of ReadReq MSHR miss cycles
system.cpu.dcache.ReadReq_mshr_miss_rate::.cpu.data     0.002058                       # mshr miss rate for ReadReq accesses
system.cpu.dcache.ReadReq_mshr_miss_rate::total     0.002058                       # mshr miss rate for ReadReq accesses
system.cpu.dcache.ReadReq_avg_mshr_miss_latency::.cpu.data 58235.069886                       # average ReadReq mshr miss latency
system.cpu.dcache.ReadReq_avg_mshr_miss_latency::total 58235.069886                       # average ReadReq mshr miss latency
system.cpu.dcache.WriteReq_hits::.cpu.data      1247703                       # number of WriteReq hits
system.cpu.dcache.WriteReq_hits::total        1247703                       # number of WriteReq hits
system.cpu.dcache.WriteReq_misses::.cpu.data          158                       # number of WriteReq misses
system.cpu.dcache.WriteReq_misses::total          158                       # number of WriteReq misses
system.cpu.dcache.WriteReq_miss_latency::.cpu.data     13545000                       # number of WriteReq miss cycles
system.cpu.dcache.WriteReq_miss_latency::total     13545000                       # number of WriteReq miss cycles
system.cpu.dcache.WriteReq_accesses::.cpu.data      1247861                       # number of WriteReq accesses(hits+misses)
system.cpu.dcache.WriteReq_accesses::total      1247861                       # number of WriteReq accesses(hits+misses)
system.cpu.dcache.WriteReq_miss_rate::.cpu.data     0.000127                       # miss rate for WriteReq accesses
system.cpu.dcache.WriteReq_miss_rate::total     0.000127                       # miss rate for WriteReq accesses
system.cpu.dcache.WriteReq_avg_miss_latency::.cpu.data 85727.848101                       # average WriteReq miss latency
system.cpu.dcache.WriteReq_avg_miss_latency::total 85727.848101                       # average WriteReq miss latency
system.cpu.dcache.WriteReq_mshr_hits::.cpu.data           63                       # number of WriteReq MSHR hits
system.cpu.dcache.WriteReq_mshr_hits::total           63                       # number of WriteReq MSHR hits
system.cpu.dcache.WriteReq_mshr_misses::.cpu.data           95                       # number of WriteReq MSHR misses
system.cpu.dcache.WriteReq_mshr_misses::total           95                       # number of WriteReq MSHR misses
system.cpu.dcache.WriteReq_mshr_miss_latency::.cpu.data      9834000                       # number of WriteReq MSHR miss cycles
system.cpu.dcache.WriteReq_mshr_miss_latency::total      9834000                       # number of WriteReq MSHR miss cycles
system.cpu.dcache.WriteReq_mshr_miss_rate::.cpu.data     0.000076                       # mshr miss rate for WriteReq accesses
system.cpu.dcache.WriteReq_mshr_miss_rate::total     0.000076                       # mshr miss rate for WriteReq accesses
system.cpu.dcache.WriteReq_avg_mshr_miss_latency::.cpu.data 103515.789474                       # average WriteReq mshr miss latency
system.cpu.dcache.WriteReq_avg_mshr_miss_latency::total 103515.789474                       # average WriteReq mshr miss latency
system.cpu.dcache.tags.pwrStateResidencyTicks::UNDEFINED   7016843000                       # Cumulative time (in ticks) in various power states
system.cpu.dcache.tags.tagsinuse          1616.034665                       # Cycle average of tags in use
system.cpu.dcache.tags.total_refs             4676172                       # Total number of references to valid blocks.
system.cpu.dcache.tags.sampled_refs              7177                       # Sample count of references to valid blocks.
system.cpu.dcache.tags.avg_refs            651.549673                       # Average number of references to valid blocks.
system.cpu.dcache.tags.warmup_cycle            222000                       # Cycle when the warmup percentage was hit.
system.cpu.dcache.tags.occ_blocks::.cpu.data  1616.034665                       # Average occupied blocks per requestor
system.cpu.dcache.tags.occ_percent::.cpu.data     0.789079                       # Average percentage of cache occupancy
system.cpu.dcache.tags.occ_percent::total     0.789079                       # Average percentage of cache occupancy
system.cpu.dcache.tags.occ_task_id_blocks::1024         2048                       # Occupied blocks per task id
system.cpu.dcache.tags.age_task_id_blocks_1024::0           46                       # Occupied blocks per task id
system.cpu.dcache.tags.age_task_id_blocks_1024::1          113                       # Occupied blocks per task id
system.cpu.dcache.tags.age_task_id_blocks_1024::2          263                       # Occupied blocks per task id
system.cpu.dcache.tags.age_task_id_blocks_1024::3         1626                       # Occupied blocks per task id
system.cpu.dcache.tags.occ_task_id_percent::1024            1                       # Percentage of cache occupancy per task id
system.cpu.dcache.tags.tag_accesses           9385471                       # Number of tag accesses
system.cpu.dcache.tags.data_accesses          9385471                       # Number of data accesses
system.l2cache.pwrStateResidencyTicks::UNDEFINED   7016843000                       # Cumulative time (in ticks) in various power states
system.l2cache.demand_hits::.cpu.inst               1                       # number of demand (read+write) hits
system.l2cache.demand_hits::.cpu.data            3938                       # number of demand (read+write) hits
system.l2cache.demand_hits::total                3939                       # number of demand (read+write) hits
system.l2cache.overall_hits::.cpu.inst              1                       # number of overall hits
system.l2cache.overall_hits::.cpu.data           3938                       # number of overall hits
system.l2cache.overall_hits::total               3939                       # number of overall hits
system.l2cache.demand_misses::.cpu.inst           324                       # number of demand (read+write) misses
system.l2cache.demand_misses::.cpu.data          3240                       # number of demand (read+write) misses
system.l2cache.demand_misses::total              3564                       # number of demand (read+write) misses
system.l2cache.overall_misses::.cpu.inst          324                       # number of overall misses
system.l2cache.overall_misses::.cpu.data         3240                       # number of overall misses
system.l2cache.overall_misses::total             3564                       # number of overall misses
system.l2cache.demand_miss_latency::.cpu.inst     32047000                       # number of demand (read+write) miss cycles
system.l2cache.demand_miss_latency::.cpu.data    315835000                       # number of demand (read+write) miss cycles
system.l2cache.demand_miss_latency::total    347882000                       # number of demand (read+write) miss cycles
system.l2cache.overall_miss_latency::.cpu.inst     32047000                       # number of overall miss cycles
system.l2cache.overall_miss_latency::.cpu.data    315835000                       # number of overall miss cycles
system.l2cache.overall_miss_latency::total    347882000                       # number of overall miss cycles
system.l2cache.demand_accesses::.cpu.inst          325                       # number of demand (read+write) accesses
[...]
system.mem_ctrl.rdQLenPdf::11                       0                       # What read queue length does an incoming req see
system.mem_ctrl.rdQLenPdf::12                       0                       # What read queue length does an incoming req see
system.mem_ctrl.rdQLenPdf::13                       0                       # What read queue length does an incoming req see
system.mem_ctrl.rdQLenPdf::14                       0                       # What read queue length does an incoming req see
system.mem_ctrl.rdQLenPdf::15                       0                       # What read queue length does an incoming req see
system.mem_ctrl.rdQLenPdf::16                       0                       # What read queue length does an incoming req see
system.mem_ctrl.rdQLenPdf::17                       0                       # What read queue length does an incoming req see
system.mem_ctrl.rdQLenPdf::18                       0                       # What read queue length does an incoming req see
system.mem_ctrl.rdQLenPdf::19                       0                       # What read queue length does an incoming req see
system.mem_ctrl.rdQLenPdf::20                       0                       # What read queue length does an incoming req see
system.mem_ctrl.rdQLenPdf::21                       0                       # What read queue length does an incoming req see
system.mem_ctrl.rdQLenPdf::22                       0                       # What read queue length does an incoming req see
system.mem_ctrl.rdQLenPdf::23                       0                       # What read queue length does an incoming req see
system.mem_ctrl.rdQLenPdf::24                       0                       # What read queue length does an incoming req see
system.mem_ctrl.rdQLenPdf::25                       0                       # What read queue length does an incoming req see
system.mem_ctrl.rdQLenPdf::26                       0                       # What read queue length does an incoming req see
system.mem_ctrl.rdQLenPdf::27                       0                       # What read queue length does an incoming req see
system.mem_ctrl.rdQLenPdf::28                       0                       # What read queue length does an incoming req see
system.mem_ctrl.rdQLenPdf::29                       0                       # What read queue length does an incoming req see
system.mem_ctrl.rdQLenPdf::30                       0                       # What read queue length does an incoming req see
system.mem_ctrl.rdQLenPdf::31                       0                       # What read queue length does an incoming req see
system.mem_ctrl.wrQLenPdf::0                        0                       # What write queue length does an incoming req see
system.mem_ctrl.wrQLenPdf::1                        0                       # What write queue length does an incoming req see
system.mem_ctrl.wrQLenPdf::2                        0                       # What write queue length does an incoming req see
system.mem_ctrl.wrQLenPdf::3                        0                       # What write queue length does an incoming req see
system.mem_ctrl.wrQLenPdf::4                        0                       # What write queue length does an incoming req see
system.mem_ctrl.wrQLenPdf::5                        0                       # What write queue length does an incoming req see
system.mem_ctrl.wrQLenPdf::6                        0                       # What write queue length does an incoming req see
system.mem_ctrl.wrQLenPdf::7                        0                       # What write queue length does an incoming req see
system.mem_ctrl.wrQLenPdf::8                        0                       # What write queue length does an incoming req see
system.mem_ctrl.wrQLenPdf::9                        0                       # What write queue length does an incoming req see
system.mem_ctrl.wrQLenPdf::10                       0                       # What write queue length does an incoming req see
system.mem_ctrl.wrQLenPdf::11                       0                       # What write queue length does an incoming req see
system.mem_ctrl.wrQLenPdf::12                       0                       # What write queue length does an incoming req see
system.mem_ctrl.wrQLenPdf::13                       0                       # What write queue length does an incoming req see
system.mem_ctrl.wrQLenPdf::14                       0                       # What write queue length does an incoming req see
system.mem_ctrl.wrQLenPdf::15                       0                       # What write queue length does an incoming req see
system.mem_ctrl.wrQLenPdf::16                       0                       # What write queue length does an incoming req see
system.mem_ctrl.wrQLenPdf::17                       0                       # What write queue length does an incoming req see
system.mem_ctrl.wrQLenPdf::18                       0                       # What write queue length does an incoming req see
system.mem_ctrl.wrQLenPdf::19                       0                       # What write queue length does an incoming req see
system.mem_ctrl.wrQLenPdf::20                       0                       # What write queue length does an incoming req see
system.mem_ctrl.wrQLenPdf::21                       0                       # What write queue length does an incoming req see
system.mem_ctrl.wrQLenPdf::22                       0                       # What write queue length does an incoming req see
system.mem_ctrl.wrQLenPdf::23                       0                       # What write queue length does an incoming req see
system.mem_ctrl.wrQLenPdf::24                       0                       # What write queue length does an incoming req see
system.mem_ctrl.wrQLenPdf::25                       0                       # What write queue length does an incoming req see
system.mem_ctrl.wrQLenPdf::26                       0                       # What write queue length does an incoming req see
system.mem_ctrl.wrQLenPdf::27                       0                       # What write queue length does an incoming req see
system.mem_ctrl.wrQLenPdf::28                       0                       # What write queue length does an incoming req see
system.mem_ctrl.wrQLenPdf::29                       0                       # What write queue length does an incoming req see
system.mem_ctrl.wrQLenPdf::30                       0                       # What write queue length does an incoming req see
system.mem_ctrl.wrQLenPdf::31                       0                       # What write queue length does an incoming req see
system.mem_ctrl.wrQLenPdf::32                       0                       # What write queue length does an incoming req see
system.mem_ctrl.wrQLenPdf::33                       0                       # What write queue length does an incoming req see
system.mem_ctrl.wrQLenPdf::34                       0                       # What write queue length does an incoming req see
system.mem_ctrl.wrQLenPdf::35                       0                       # What write queue length does an incoming req see
system.mem_ctrl.wrQLenPdf::36                       0                       # What write queue length does an incoming req see
system.mem_ctrl.wrQLenPdf::37                       0                       # What write queue length does an incoming req see
system.mem_ctrl.wrQLenPdf::38                       0                       # What write queue length does an incoming req see
system.mem_ctrl.wrQLenPdf::39                       0                       # What write queue length does an incoming req see
system.mem_ctrl.wrQLenPdf::40                       0                       # What write queue length does an incoming req see
system.mem_ctrl.wrQLenPdf::41                       0                       # What write queue length does an incoming req see
system.mem_ctrl.wrQLenPdf::42                       0                       # What write queue length does an incoming req see
system.mem_ctrl.wrQLenPdf::43                       0                       # What write queue length does an incoming req see
system.mem_ctrl.wrQLenPdf::44                       0                       # What write queue length does an incoming req see
system.mem_ctrl.wrQLenPdf::45                       0                       # What write queue length does an incoming req see
system.mem_ctrl.wrQLenPdf::46                       0                       # What write queue length does an incoming req see
system.mem_ctrl.wrQLenPdf::47                       0                       # What write queue length does an incoming req see
system.mem_ctrl.wrQLenPdf::48                       0                       # What write queue length does an incoming req see
system.mem_ctrl.wrQLenPdf::49                       0                       # What write queue length does an incoming req see
system.mem_ctrl.wrQLenPdf::50                       0                       # What write queue length does an incoming req see
system.mem_ctrl.wrQLenPdf::51                       0                       # What write queue length does an incoming req see
system.mem_ctrl.wrQLenPdf::52                       0                       # What write queue length does an incoming req see
system.mem_ctrl.wrQLenPdf::53                       0                       # What write queue length does an incoming req see
system.mem_ctrl.wrQLenPdf::54                       0                       # What write queue length does an incoming req see
system.mem_ctrl.wrQLenPdf::55                       0                       # What write queue length does an incoming req see
system.mem_ctrl.wrQLenPdf::56                       0                       # What write queue length does an incoming req see
system.mem_ctrl.wrQLenPdf::57                       0                       # What write queue length does an incoming req see
system.mem_ctrl.wrQLenPdf::58                       0                       # What write queue length does an incoming req see
system.mem_ctrl.wrQLenPdf::59                       0                       # What write queue length does an incoming req see
system.mem_ctrl.wrQLenPdf::60                       0                       # What write queue length does an incoming req see
system.mem_ctrl.wrQLenPdf::61                       0                       # What write queue length does an incoming req see
system.mem_ctrl.wrQLenPdf::62                       0                       # What write queue length does an incoming req see
system.mem_ctrl.wrQLenPdf::63                       0                       # What write queue length does an incoming req see
system.mem_ctrl.bytesPerActivate::samples          478                       # Bytes accessed per row activation
system.mem_ctrl.bytesPerActivate::mean     473.707113                       # Bytes accessed per row activation
system.mem_ctrl.bytesPerActivate::gmean    330.056824                       # Bytes accessed per row activation
system.mem_ctrl.bytesPerActivate::stdev    326.874632                       # Bytes accessed per row activation
system.mem_ctrl.bytesPerActivate::0-127            93     19.46%     19.46% # Bytes accessed per row activation
system.mem_ctrl.bytesPerActivate::128-255           51     10.67%     30.13% # Bytes accessed per row activation
system.mem_ctrl.bytesPerActivate::256-383           32      6.69%     36.82% # Bytes accessed per row activation
system.mem_ctrl.bytesPerActivate::384-511           65     13.60%     50.42% # Bytes accessed per row activation
system.mem_ctrl.bytesPerActivate::512-639          105     21.97%     72.38% # Bytes accessed per row activation
system.mem_ctrl.bytesPerActivate::640-767           20      4.18%     76.57% # Bytes accessed per row activation
system.mem_ctrl.bytesPerActivate::768-895           18      3.77%     80.33% # Bytes accessed per row activation
system.mem_ctrl.bytesPerActivate::896-1023           28      5.86%     86.19% # Bytes accessed per row activation
system.mem_ctrl.bytesPerActivate::1024-1151           66     13.81%    100.00% # Bytes accessed per row activation
system.mem_ctrl.bytesPerActivate::total           478                       # Bytes accessed per row activation
system.mem_ctrl.bytesReadDRAM                  228032                       # Total number of bytes read from DRAM
system.mem_ctrl.bytesReadWrQ                        0                       # Total number of bytes read from write queue
system.mem_ctrl.bytesWritten                        0                       # Total number of bytes written to DRAM
system.mem_ctrl.bytesReadSys                   228032                       # Total read bytes from the system interface side
system.mem_ctrl.bytesWrittenSys                     0                       # Total written bytes from the system interface side
system.mem_ctrl.avgRdBW                         32.50                       # Average DRAM read bandwidth in MiByte/s
system.mem_ctrl.avgWrBW                          0.00                       # Average achieved write bandwidth in MiByte/s
system.mem_ctrl.avgRdBWSys                      32.50                       # Average system read bandwidth in MiByte/s
system.mem_ctrl.avgWrBWSys                       0.00                       # Average system write bandwidth in MiByte/s
system.mem_ctrl.peakBW                       12800.00                       # Theoretical peak bandwidth in MiByte/s
system.mem_ctrl.busUtil                          0.25                       # Data bus utilization in percentage
system.mem_ctrl.busUtilRead                      0.25                       # Data bus utilization in percentage for reads
system.mem_ctrl.busUtilWrite                     0.00                       # Data bus utilization in percentage for writes
system.mem_ctrl.totGap                     7016790000                       # Total gap between requests
system.mem_ctrl.avgGap                     1969348.86                       # Average gap between requests
system.mem_ctrl.masterReadBytes::.cpu.inst        20672                       # Per-master bytes read from memory
system.mem_ctrl.masterReadBytes::.cpu.data       207360                       # Per-master bytes read from memory
system.mem_ctrl.masterReadRate::.cpu.inst 2946054.229801065754                       # Per-master bytes read from memory rate (Bytes/sec)
system.mem_ctrl.masterReadRate::.cpu.data 29551751.407292425632                       # Per-master bytes read from memory rate (Bytes/sec)
system.mem_ctrl.masterReadAccesses::.cpu.inst          323                       # Per-master read serviced memory accesses
system.mem_ctrl.masterReadAccesses::.cpu.data         3240                       # Per-master read serviced memory accesses
system.mem_ctrl.masterReadTotalLat::.cpu.inst      9010500                       # Per-master read total memory access latency
system.mem_ctrl.masterReadTotalLat::.cpu.data     84906000                       # Per-master read total memory access latency
system.mem_ctrl.masterReadAvgLat::.cpu.inst     27896.28                       # Per-master read average memory access latency
system.mem_ctrl.masterReadAvgLat::.cpu.data     26205.56                       # Per-master read average memory access latency
system.mem_ctrl.pageHitRate                     86.47                       # Row buffer hit rate, read and write combined
system.mem_ctrl.rank1.actEnergy               1178100                       # Energy for activate commands per rank (pJ)
system.mem_ctrl.rank1.preEnergy                614790                       # Energy for precharge commands per rank (pJ)
system.mem_ctrl.rank1.readEnergy              9089220                       # Energy for read commands per rank (pJ)
system.mem_ctrl.rank1.writeEnergy                   0                       # Energy for write commands per rank (pJ)
system.mem_ctrl.rank1.refreshEnergy      553790640.000000                       # Energy for refresh commands per rank (pJ)
system.mem_ctrl.rank1.actBackEnergy         261098190                       # Energy for active background per rank (pJ)
system.mem_ctrl.rank1.preBackEnergy        2474595840                       # Energy for precharge background per rank (pJ)
system.mem_ctrl.rank1.actPowerDownEnergy            0                       # Energy for active power-down per rank (pJ)
system.mem_ctrl.rank1.prePowerDownEnergy            0                       # Energy for precharge power-down per rank (pJ)
system.mem_ctrl.rank1.selfRefreshEnergy             0                       # Energy for self refresh per rank (pJ)
system.mem_ctrl.rank1.totalEnergy          3300366780                       # Total energy per rank (pJ)
system.mem_ctrl.rank1.averagePower         470.349241                       # Core power per rank (mW)
system.mem_ctrl.rank1.totalIdleTime                 0                       # Total Idle time Per DRAM Rank
system.mem_ctrl.rank1.memoryStateTime::IDLE   6431020750                       # Time in different power states
system.mem_ctrl.rank1.memoryStateTime::REF    234260000                       # Time in different power states
system.mem_ctrl.rank1.memoryStateTime::SREF            0                       # Time in different power states
system.mem_ctrl.rank1.memoryStateTime::PRE_PDN            0                       # Time in different power states
system.mem_ctrl.rank1.memoryStateTime::ACT    351562250                       # Time in different power states
system.mem_ctrl.rank1.memoryStateTime::ACT_PDN            0                       # Time in different power states
system.mem_ctrl.rank0.actEnergy               2263380                       # Energy for activate commands per rank (pJ)
system.mem_ctrl.rank0.preEnergy               1199220                       # Energy for precharge commands per rank (pJ)
system.mem_ctrl.rank0.readEnergy             16350600                       # Energy for read commands per rank (pJ)
system.mem_ctrl.rank0.writeEnergy                   0                       # Energy for write commands per rank (pJ)
system.mem_ctrl.rank0.refreshEnergy      553790640.000000                       # Energy for refresh commands per rank (pJ)
system.mem_ctrl.rank0.actBackEnergy         461985570                       # Energy for active background per rank (pJ)
system.mem_ctrl.rank0.preBackEnergy        2305427520                       # Energy for precharge background per rank (pJ)
system.mem_ctrl.rank0.actPowerDownEnergy            0                       # Energy for active power-down per rank (pJ)
system.mem_ctrl.rank0.prePowerDownEnergy            0                       # Energy for precharge power-down per rank (pJ)
system.mem_ctrl.rank0.selfRefreshEnergy             0                       # Energy for self refresh per rank (pJ)
system.mem_ctrl.rank0.totalEnergy          3341016930                       # Total energy per rank (pJ)
system.mem_ctrl.rank0.averagePower         476.142466                       # Core power per rank (mW)
system.mem_ctrl.rank0.totalIdleTime                 0                       # Total Idle time Per DRAM Rank
system.mem_ctrl.rank0.memoryStateTime::IDLE   5988858500                       # Time in different power states
system.mem_ctrl.rank0.memoryStateTime::REF    234260000                       # Time in different power states
system.mem_ctrl.rank0.memoryStateTime::SREF            0                       # Time in different power states
system.mem_ctrl.rank0.memoryStateTime::PRE_PDN            0                       # Time in different power states
system.mem_ctrl.rank0.memoryStateTime::ACT    793724500                       # Time in different power states
system.mem_ctrl.rank0.memoryStateTime::ACT_PDN            0                       # Time in different power states

---------- End Simulation Statistics   ----------
