
---------- Begin Simulation Statistics ----------
final_tick                                10571796000                       # Number of ticks from beginning of simulation (restored from checkpoints and never reset)
host_inst_rate                                 174763                       # Simulator instruction rate (inst/s)
host_mem_usage                                 787860                       # Number of bytes of host memory used
host_op_rate                                   276763                       # Simulator op (including micro ops) rate (op/s)
host_seconds                                    34.36                       # Real time elapsed on the host
host_tick_rate                              307696934                       # Simulator tick rate (ticks/s)
sim_freq                                 1000000000000                       # Frequency of simulated ticks
sim_insts                                     6004433                       # Number of instructions simulated
sim_ops                                       9508954                       # Number of ops (including micro ops) simulated
sim_seconds                                  0.010572                       # Number of seconds simulated
sim_ticks                                 10571796000                       # Number of ticks simulated
system.cpu.branchPred.BTBCorrect                    0                       # Number of correct BTB predictions (this stat may not work properly.
system.cpu.branchPred.BTBHitPct              0.000000                       # BTB Hit Percentage
system.cpu.branchPred.BTBHits                       0                       # Number of BTB hits
system.cpu.branchPred.BTBLookups               502271                       # Number of BTB lookups
system.cpu.branchPred.RASInCorrect                  1                       # Number of incorrect RAS predictions.
system.cpu.branchPred.condIncorrect               481                       # Number of conditional branches incorrect
system.cpu.branchPred.condPredicted            502033                       # Number of conditional branches predicted
system.cpu.branchPred.indirectHits             500284                       # Number of indirect target hits.
system.cpu.branchPred.indirectLookups          502271                       # Number of indirect predictor lookups.
system.cpu.branchPred.indirectMisses             1987                       # Number of indirect misses.
system.cpu.branchPred.lookups                  502703                       # Number of BP lookups
system.cpu.branchPred.usedRAS                     231                       # Number of times the RAS was used to get a target.
system.cpu.branchPredindirectMispredicted          422                       # Number of mispredicted indirect branches.
system.cpu.cc_regfile_reads                   5006427                       # number of cc regfile reads
system.cpu.cc_regfile_writes                  9004140                       # number of cc regfile writes
system.cpu.commit.amos                              0                       # Number of atomic instructions committed
system.cpu.commit.branchMispredicts               483                       # The number of times a branch was mispredicted
system.cpu.commit.branches                     500944                       # Number of branches committed
system.cpu.commit.bw_lim_events               1002570                       # number cycles where commit BW limit reached
system.cpu.commit.commitNonSpecStalls               8                       # The number of times commit has been forced to stall to communicate backwards
system.cpu.commit.commitSquashedInsts           10836                       # The number of squashed insts skipped by commit
system.cpu.commit.committedInsts              6004433                       # Number of instructions committed
system.cpu.commit.committedOps                9508954                       # Number of ops (including micro ops) committed
system.cpu.commit.committed_per_cycle::samples     10564753                       # Number of insts commited each cycle
system.cpu.commit.committed_per_cycle::mean     0.900064                       # Number of insts commited each cycle
system.cpu.commit.committed_per_cycle::stdev     2.354275                       # Number of insts commited each cycle
system.cpu.commit.committed_per_cycle::underflows            0      0.00%      0.00% # Number of insts commited each cycle
system.cpu.commit.committed_per_cycle::0      8628463     81.67%     81.67% # Number of insts commited each cycle
system.cpu.commit.committed_per_cycle::1       466739      4.42%     86.09% # Number of insts commited each cycle
system.cpu.commit.committed_per_cycle::2       437312      4.14%     90.23% # Number of insts commited each cycle
system.cpu.commit.committed_per_cycle::3         1057      0.01%     90.24% # Number of insts commited each cycle
system.cpu.commit.committed_per_cycle::4          365      0.00%     90.24% # Number of insts commited each cycle
system.cpu.commit.committed_per_cycle::5        27158      0.26%     90.50% # Number of insts commited each cycle
system.cpu.commit.committed_per_cycle::6         1013      0.01%     90.51% # Number of insts commited each cycle
system.cpu.commit.committed_per_cycle::7           76      0.00%     90.51% # Number of insts commited each cycle
system.cpu.commit.committed_per_cycle::8      1002570      9.49%    100.00% # Number of insts commited each cycle
system.cpu.commit.committed_per_cycle::overflows            0      0.00%    100.00% # Number of insts commited each cycle
system.cpu.commit.committed_per_cycle::min_value            0                       # Number of insts commited each cycle
system.cpu.commit.committed_per_cycle::max_value            8                       # Number of insts commited each cycle
system.cpu.commit.committed_per_cycle::total     10564753                       # Number of insts commited each cycle
system.cpu.commit.fp_insts                        302                       # Number of committed floating point instructions.
system.cpu.commit.function_calls                   88                       # Number of function calls committed.
system.cpu.commit.int_insts                   9508809                       # Number of committed integer instructions.
system.cpu.commit.loads                        500767                       # Number of loads committed
system.cpu.commit.membars                           0                       # Number of memory barriers committed
system.cpu.commit.op_class_0::No_OpClass           41      0.00%      0.00% # Class of committed instruction
system.cpu.commit.op_class_0::IntAlu          9006985     94.72%     94.72% # Class of committed instruction
system.cpu.commit.op_class_0::IntMult               5      0.00%     94.72% # Class of committed instruction
system.cpu.commit.op_class_0::IntDiv               21      0.00%     94.72% # Class of committed instruction
system.cpu.commit.op_class_0::FloatAdd              2      0.00%     94.72% # Class of committed instruction
system.cpu.commit.op_class_0::FloatCmp              0      0.00%     94.72% # Class of committed instruction
system.cpu.commit.op_class_0::FloatCvt              0      0.00%     94.72% # Class of committed instruction
system.cpu.commit.op_class_0::FloatMult             0      0.00%     94.72% # Class of committed instruction
system.cpu.commit.op_class_0::FloatMultAcc            0      0.00%     94.72% # Class of committed instruction
system.cpu.commit.op_class_0::FloatDiv              0      0.00%     94.72% # Class of committed instruction
system.cpu.commit.op_class_0::FloatMisc             0      0.00%     94.72% # Class of committed instruction
system.cpu.commit.op_class_0::FloatSqrt             0      0.00%     94.72% # Class of committed instruction
system.cpu.commit.op_class_0::SimdAdd               0      0.00%     94.72% # Class of committed instruction
system.cpu.commit.op_class_0::SimdAddAcc            0      0.00%     94.72% # Class of committed instruction
system.cpu.commit.op_class_0::SimdAlu              42      0.00%     94.72% # Class of committed instruction
system.cpu.commit.op_class_0::SimdCmp               0      0.00%     94.72% # Class of committed instruction
system.cpu.commit.op_class_0::SimdCvt              30      0.00%     94.72% # Class of committed instruction
system.cpu.commit.op_class_0::SimdMisc             44      0.00%     94.72% # Class of committed instruction
system.cpu.commit.op_class_0::SimdMult              0      0.00%     94.72% # Class of committed instruction
system.cpu.commit.op_class_0::SimdMultAcc            0      0.00%     94.72% # Class of committed instruction
system.cpu.commit.op_class_0::SimdShift             0      0.00%     94.72% # Class of committed instruction
system.cpu.commit.op_class_0::SimdShiftAcc            0      0.00%     94.72% # Class of committed instruction
system.cpu.commit.op_class_0::SimdDiv               0      0.00%     94.72% # Class of committed instruction
system.cpu.commit.op_class_0::SimdSqrt              0      0.00%     94.72% # Class of committed instruction
system.cpu.commit.op_class_0::SimdFloatAdd            0      0.00%     94.72% # Class of committed instruction
system.cpu.commit.op_class_0::SimdFloatAlu            0      0.00%     94.72% # Class of committed instruction
system.cpu.commit.op_class_0::SimdFloatCmp            0      0.00%     94.72% # Class of committed instruction
system.cpu.commit.op_class_0::SimdFloatCvt            0      0.00%     94.72% # Class of committed instruction
system.cpu.commit.op_class_0::SimdFloatDiv            0      0.00%     94.72% # Class of committed instruction
system.cpu.commit.op_class_0::SimdFloatMisc            0      0.00%     94.72% # Class of committed instruction
system.cpu.commit.op_class_0::SimdFloatMult            0      0.00%     94.72% # Class of committed instruction
system.cpu.commit.op_class_0::SimdFloatMultAcc            0      0.00%     94.72% # Class of committed instruction
system.cpu.commit.op_class_0::SimdFloatSqrt            0      0.00%     94.72% # Class of committed instruction
system.cpu.commit.op_class_0::SimdReduceAdd            0      0.00%     94.72% # Class of committed instruction
system.cpu.commit.op_class_0::SimdReduceAlu            0      0.00%     94.72% # Class of committed instruction
system.cpu.commit.op_class_0::SimdReduceCmp            0      0.00%     94.72% # Class of committed instruction
system.cpu.commit.op_class_0::SimdFloatReduceAdd            0      0.00%     94.72% # Class of committed instruction
system.cpu.commit.op_class_0::SimdFloatReduceCmp            0      0.00%     94.72% # Class of committed instruction
system.cpu.commit.op_class_0::SimdAes               0      0.00%     94.72% # Class of committed instruction
system.cpu.commit.op_class_0::SimdAesMix            0      0.00%     94.72% # Class of committed instruction
system.cpu.commit.op_class_0::SimdSha1Hash            0      0.00%     94.72% # Class of committed instruction
system.cpu.commit.op_class_0::SimdSha1Hash2            0      0.00%     94.72% # Class of committed instruction
system.cpu.commit.op_class_0::SimdSha256Hash            0      0.00%     94.72% # Class of committed instruction
system.cpu.commit.op_class_0::SimdSha256Hash2            0      0.00%     94.72% # Class of committed instruction
system.cpu.commit.op_class_0::SimdShaSigma2            0      0.00%     94.72% # Class of committed instruction
system.cpu.commit.op_class_0::SimdShaSigma3            0      0.00%     94.72% # Class of committed instruction
system.cpu.commit.op_class_0::SimdPredAlu            0      0.00%     94.72% # Class of committed instruction
system.cpu.commit.op_class_0::MemRead          500741      5.27%     99.99% # Class of committed instruction
system.cpu.commit.op_class_0::MemWrite            865      0.01%    100.00% # Class of committed instruction
system.cpu.commit.op_class_0::FloatMemRead           26      0.00%    100.00% # Class of committed instruction
system.cpu.commit.op_class_0::FloatMemWrite          152      0.00%    100.00% # Class of committed instruction
system.cpu.commit.op_class_0::IprAccess             0      0.00%    100.00% # Class of committed instruction
system.cpu.commit.op_class_0::InstPrefetch            0      0.00%    100.00% # Class of committed instruction
system.cpu.commit.op_class_0::total           9508954                       # Class of committed instruction
system.cpu.commit.refs                         501784                       # Number of memory references committed
system.cpu.commit.swp_count                         0                       # Number of s/w prefetches committed
system.cpu.commit.vec_insts                         0                       # Number of committed Vector instructions.
system.cpu.committedInsts                     6004433                       # Number of Instructions Simulated
system.cpu.committedOps                       9508954                       # Number of Ops (including micro ops) Simulated
system.cpu.cpi                               1.760665                       # CPI: Cycles Per Instruction
system.cpu.cpi_total                         1.760665                       # CPI: Total CPI of All Threads
system.cpu.decode.BlockedCycles               9058533                       # Number of cycles decode is blocked
system.cpu.decode.DecodedInsts                9524112                       # Number of instructions handled by decode
system.cpu.decode.IdleCycles                   314178                       # Number of cycles decode is idle
system.cpu.decode.RunCycles                    429095                       # Number of cycles decode is running
system.cpu.decode.SquashCycles                    490                       # Number of cycles decode is squashing
system.cpu.decode.UnblockCycles                764264                       # Number of cycles decode is unblocking
system.cpu.dtb.rdAccesses                      501470                       # TLB accesses on read requests
system.cpu.dtb.rdMisses                        438709                       # TLB misses on read requests
system.cpu.dtb.wrAccesses                        1579                       # TLB accesses on write requests
system.cpu.dtb.wrMisses                             8                       # TLB misses on write requests
system.cpu.fetch.Branches                      502703                       # Number of branches that fetch encountered
system.cpu.fetch.CacheLines                   1001882                       # Number of cache lines fetched
system.cpu.fetch.Cycles                       9557177                       # Number of cycles fetch has run and was not squashing or blocked
system.cpu.fetch.IcacheSquashes                   278                       # Number of outstanding Icache misses that were squashed
system.cpu.fetch.Insts                        6013050                       # Number of instructions fetch has processed
system.cpu.fetch.MiscStallCycles                    6                       # Number of cycles fetch has spent waiting on interrupts, or bad addresses, or out of MSHRs
system.cpu.fetch.PendingQuiesceStallCycles           13                       # Number of stall cycles due to pending quiesce instructions
system.cpu.fetch.PendingTrapStallCycles            21                       # Number of stall cycles due to pending traps
system.cpu.fetch.SquashCycles                     980                       # Number of cycles fetch has spent squashing
system.cpu.fetch.branchRate                  0.047551                       # Number of branch fetches per cycle
system.cpu.fetch.icacheStallCycles            1008853                       # Number of cycles fetch is stalled on an Icache miss
system.cpu.fetch.predictedBranches             500515                       # Number of branches that fetch has predicted taken
system.cpu.fetch.rate                        0.568782                       # Number of inst fetches per cycle
system.cpu.fetch.rateDist::samples           10566560                       # Number of instructions fetched each cycle (Total)
system.cpu.fetch.rateDist::mean              0.901551                       # Number of instructions fetched each cycle (Total)
system.cpu.fetch.rateDist::stdev             2.162807                       # Number of instructions fetched each cycle (Total)
system.cpu.fetch.rateDist::underflows               0      0.00%      0.00% # Number of instructions fetched each cycle (Total)
system.cpu.fetch.rateDist::0                  8703075     82.36%     82.36% # Number of instructions fetched each cycle (Total)
system.cpu.fetch.rateDist::1                   159087      1.51%     83.87% # Number of instructions fetched each cycle (Total)
system.cpu.fetch.rateDist::2                   146904      1.39%     85.26% # Number of instructions fetched each cycle (Total)
system.cpu.fetch.rateDist::3                   143612      1.36%     86.62% # Number of instructions fetched each cycle (Total)
system.cpu.fetch.rateDist::4                   159931      1.51%     88.13% # Number of instructions fetched each cycle (Total)
system.cpu.fetch.rateDist::5                   526120      4.98%     93.11% # Number of instructions fetched each cycle (Total)
system.cpu.fetch.rateDist::6                   219954      2.08%     95.19% # Number of instructions fetched each cycle (Total)
system.cpu.fetch.rateDist::7                    10506      0.10%     95.29% # Number of instructions fetched each cycle (Total)
system.cpu.fetch.rateDist::8                   497371      4.71%    100.00% # Number of instructions fetched each cycle (Total)
system.cpu.fetch.rateDist::overflows                0      0.00%    100.00% # Number of instructions fetched each cycle (Total)
system.cpu.fetch.rateDist::min_value                0                       # Number of instructions fetched each cycle (Total)
system.cpu.fetch.rateDist::max_value                8                       # Number of instructions fetched each cycle (Total)
system.cpu.fetch.rateDist::total             10566560                       # Number of instructions fetched each cycle (Total)
system.cpu.fp_regfile_reads                       531                       # number of floating regfile reads
system.cpu.fp_regfile_writes                      186                       # number of floating regfile writes
system.cpu.idleCycles                            5237                       # Total number of cycles that the CPU has spent unscheduled due to idling
system.cpu.iew.branchMispredicts                  617                       # Number of branch mispredicts detected at execute
system.cpu.iew.exec_branches                   501371                       # Number of branches executed
system.cpu.iew.exec_nop                             0                       # number of nop insts executed
system.cpu.iew.exec_rate                     1.176862                       # Inst execution rate
system.cpu.iew.exec_refs                      3429350                       # number of memory reference insts executed
system.cpu.iew.exec_stores                       1578                       # Number of stores executed
system.cpu.iew.exec_swp                             0                       # number of swp insts executed
system.cpu.iew.iewBlockCycles                    1343                       # Number of cycles IEW is blocking
system.cpu.iew.iewDispLoadInsts                502085                       # Number of dispatched load instructions
system.cpu.iew.iewDispNonSpecInsts                 33                       # Number of dispatched non-speculative instructions
system.cpu.iew.iewDispSquashedInsts                 8                       # Number of squashed instructions skipped by dispatch
system.cpu.iew.iewDispStoreInsts                 2050                       # Number of dispatched store instructions
system.cpu.iew.iewDispatchedInsts             9519787                       # Number of instructions dispatched to IQ
system.cpu.iew.iewExecLoadInsts               3427772                       # Number of load instructions executed
system.cpu.iew.iewExecSquashedInsts               888                       # Number of squashed instructions skipped in execute
system.cpu.iew.iewExecutedInsts              12441548                       # Number of executed instructions
system.cpu.iew.iewIQFullEvents                      5                       # Number of times the IQ has become full, causing a stall
system.cpu.iew.iewIdleCycles                        0                       # Number of cycles IEW is idle
system.cpu.iew.iewLSQFullEvents                   422                       # Number of times the LSQ has become full, causing a stall
system.cpu.iew.iewSquashCycles                    490                       # Number of cycles IEW is squashing
system.cpu.iew.iewUnblockCycles                   428                       # Number of cycles IEW is unblocking
system.cpu.iew.lsq.thread0.blockedLoads             0                       # Number of blocked loads due to partial load-store forwarding
system.cpu.iew.lsq.thread0.cacheBlocked        483710                       # Number of times an access to memory failed due to the cache being blocked
system.cpu.iew.lsq.thread0.forwLoads               53                       # Number of loads that had data forwarded from stores
system.cpu.iew.lsq.thread0.ignoredResponses            1                       # Number of memory responses ignored because the instruction is squashed
system.cpu.iew.lsq.thread0.invAddrLoads             0                       # Number of loads ignored due to an invalid address
system.cpu.iew.lsq.thread0.invAddrSwpfs             0                       # Number of software prefetches ignored due to an invalid address
system.cpu.iew.lsq.thread0.memOrderViolation            6                       # Number of memory ordering violations
system.cpu.iew.lsq.thread0.rescheduledLoads            1                       # Number of loads that were rescheduled
system.cpu.iew.lsq.thread0.squashedLoads         1318                       # Number of loads squashed
system.cpu.iew.lsq.thread0.squashedStores         1033                       # Number of stores squashed
system.cpu.iew.memOrderViolationEvents              6                       # Number of memory order violations
system.cpu.iew.predictedNotTakenIncorrect          604                       # Number of branches that were predicted not taken incorrectly
system.cpu.iew.predictedTakenIncorrect             13                       # Number of branches that were predicted taken incorrectly
system.cpu.iew.wb_consumers                  13214255                       # num instructions consuming a value
system.cpu.iew.wb_count                       9514836                       # cumulative count of insts written-back
system.cpu.iew.wb_fanout                     0.601984                       # average fanout of values written-back
system.cpu.iew.wb_producers                   7954776                       # num instructions producing a value
system.cpu.iew.wb_rate                       0.900021                       # insts written-back per cycle
system.cpu.iew.wb_sent                        9515002                       # cumulative count of insts sent to commit
system.cpu.int_regfile_reads                 19872327                       # number of integer regfile reads
system.cpu.int_regfile_writes                 9011651                       # number of integer regfile writes
system.cpu.ipc                               0.567967                       # IPC: Instructions Per Cycle
system.cpu.ipc_total                         0.567967                       # IPC: Total IPC of All Threads
system.cpu.iq.FU_type_0::No_OpClass               261      0.00%      0.00% # Type of FU issued
system.cpu.iq.FU_type_0::IntAlu               9012356     72.43%     72.43% # Type of FU issued
system.cpu.iq.FU_type_0::IntMult                    5      0.00%     72.43% # Type of FU issued
system.cpu.iq.FU_type_0::IntDiv                    23      0.00%     72.43% # Type of FU issued
system.cpu.iq.FU_type_0::FloatAdd                   2      0.00%     72.43% # Type of FU issued
system.cpu.iq.FU_type_0::FloatCmp                   0      0.00%     72.43% # Type of FU issued
system.cpu.iq.FU_type_0::FloatCvt                   0      0.00%     72.43% # Type of FU issued
system.cpu.iq.FU_type_0::FloatMult                  0      0.00%     72.43% # Type of FU issued
system.cpu.iq.FU_type_0::FloatMultAcc               0      0.00%     72.43% # Type of FU issued
system.cpu.iq.FU_type_0::FloatDiv                   0      0.00%     72.43% # Type of FU issued
system.cpu.iq.FU_type_0::FloatMisc                  0      0.00%     72.43% # Type of FU issued
system.cpu.iq.FU_type_0::FloatSqrt                  0      0.00%     72.43% # Type of FU issued
system.cpu.iq.FU_type_0::SimdAdd                    0      0.00%     72.43% # Type of FU issued
system.cpu.iq.FU_type_0::SimdAddAcc                 0      0.00%     72.43% # Type of FU issued
system.cpu.iq.FU_type_0::SimdAlu                   73      0.00%     72.44% # Type of FU issued
system.cpu.iq.FU_type_0::SimdCmp                    0      0.00%     72.44% # Type of FU issued
system.cpu.iq.FU_type_0::SimdCvt                   51      0.00%     72.44% # Type of FU issued
system.cpu.iq.FU_type_0::SimdMisc                  63      0.00%     72.44% # Type of FU issued
system.cpu.iq.FU_type_0::SimdMult                   0      0.00%     72.44% # Type of FU issued
system.cpu.iq.FU_type_0::SimdMultAcc                0      0.00%     72.44% # Type of FU issued
system.cpu.iq.FU_type_0::SimdShift                  0      0.00%     72.44% # Type of FU issued
system.cpu.iq.FU_type_0::SimdShiftAcc               0      0.00%     72.44% # Type of FU issued
system.cpu.iq.FU_type_0::SimdDiv                    0      0.00%     72.44% # Type of FU issued
system.cpu.iq.FU_type_0::SimdSqrt                   0      0.00%     72.44% # Type of FU issued
system.cpu.iq.FU_type_0::SimdFloatAdd               0      0.00%     72.44% # Type of FU issued
system.cpu.iq.FU_type_0::SimdFloatAlu               0      0.00%     72.44% # Type of FU issued
system.cpu.iq.FU_type_0::SimdFloatCmp               0      0.00%     72.44% # Type of FU issued
system.cpu.iq.FU_type_0::SimdFloatCvt               0      0.00%     72.44% # Type of FU issued
system.cpu.iq.FU_type_0::SimdFloatDiv               0      0.00%     72.44% # Type of FU issued
system.cpu.iq.FU_type_0::SimdFloatMisc              0      0.00%     72.44% # Type of FU issued
system.cpu.iq.FU_type_0::SimdFloatMult              0      0.00%     72.44% # Type of FU issued
system.cpu.iq.FU_type_0::SimdFloatMultAcc            0      0.00%     72.44% # Type of FU issued
system.cpu.iq.FU_type_0::SimdFloatSqrt              0      0.00%     72.44% # Type of FU issued
system.cpu.iq.FU_type_0::SimdReduceAdd              0      0.00%     72.44% # Type of FU issued
system.cpu.iq.FU_type_0::SimdReduceAlu              0      0.00%     72.44% # Type of FU issued
system.cpu.iq.FU_type_0::SimdReduceCmp              0      0.00%     72.44% # Type of FU issued
system.cpu.iq.FU_type_0::SimdFloatReduceAdd            0      0.00%     72.44% # Type of FU issued
system.cpu.iq.FU_type_0::SimdFloatReduceCmp            0      0.00%     72.44% # Type of FU issued
system.cpu.iq.FU_type_0::SimdAes                    0      0.00%     72.44% # Type of FU issued
system.cpu.iq.FU_type_0::SimdAesMix                 0      0.00%     72.44% # Type of FU issued
system.cpu.iq.FU_type_0::SimdSha1Hash               0      0.00%     72.44% # Type of FU issued
system.cpu.iq.FU_type_0::SimdSha1Hash2              0      0.00%     72.44% # Type of FU issued
system.cpu.iq.FU_type_0::SimdSha256Hash             0      0.00%     72.44% # Type of FU issued
system.cpu.iq.FU_type_0::SimdSha256Hash2            0      0.00%     72.44% # Type of FU issued
system.cpu.iq.FU_type_0::SimdShaSigma2              0      0.00%     72.44% # Type of FU issued
system.cpu.iq.FU_type_0::SimdShaSigma3              0      0.00%     72.44% # Type of FU issued
system.cpu.iq.FU_type_0::SimdPredAlu                0      0.00%     72.44% # Type of FU issued
system.cpu.iq.FU_type_0::MemRead              3427858     27.55%     99.99% # Type of FU issued
system.cpu.iq.FU_type_0::MemWrite                1515      0.01%    100.00% # Type of FU issued
system.cpu.iq.FU_type_0::FloatMemRead              72      0.00%    100.00% # Type of FU issued
system.cpu.iq.FU_type_0::FloatMemWrite            157      0.00%    100.00% # Type of FU issued
system.cpu.iq.FU_type_0::IprAccess                  0      0.00%    100.00% # Type of FU issued
system.cpu.iq.FU_type_0::InstPrefetch               0      0.00%    100.00% # Type of FU issued
system.cpu.iq.FU_type_0::total               12442436                       # Type of FU issued
system.cpu.iq.fp_alu_accesses                     437                       # Number of floating point alu accesses
system.cpu.iq.fp_inst_queue_reads                 866                       # Number of floating instruction queue reads
system.cpu.iq.fp_inst_queue_wakeup_accesses          388                       # Number of floating instruction queue wakeup accesses
system.cpu.iq.fp_inst_queue_writes                732                       # Number of floating instruction queue writes
system.cpu.iq.fu_busy_cnt                      463644                       # FU busy when requested
system.cpu.iq.fu_busy_rate                   0.037263                       # FU busy rate (busy events/executed inst)
system.cpu.iq.fu_full::No_OpClass                   0      0.00%      0.00% # attempts to use FU when none available
system.cpu.iq.fu_full::IntAlu                    6347      1.37%      1.37% # attempts to use FU when none available
system.cpu.iq.fu_full::IntMult                      0      0.00%      1.37% # attempts to use FU when none available
system.cpu.iq.fu_full::IntDiv                       0      0.00%      1.37% # attempts to use FU when none available
system.cpu.iq.fu_full::FloatAdd                     0      0.00%      1.37% # attempts to use FU when none available
system.cpu.iq.fu_full::FloatCmp                     0      0.00%      1.37% # attempts to use FU when none available
system.cpu.iq.fu_full::FloatCvt                     0      0.00%      1.37% # attempts to use FU when none available
system.cpu.iq.fu_full::FloatMult                    0      0.00%      1.37% # attempts to use FU when none available
system.cpu.iq.fu_full::FloatMultAcc                 0      0.00%      1.37% # attempts to use FU when none available
system.cpu.iq.fu_full::FloatDiv                     0      0.00%      1.37% # attempts to use FU when none available
system.cpu.iq.fu_full::FloatMisc                    0      0.00%      1.37% # attempts to use FU when none available
system.cpu.iq.fu_full::FloatSqrt                    0      0.00%      1.37% # attempts to use FU when none available
system.cpu.iq.fu_full::SimdAdd                      0      0.00%      1.37% # attempts to use FU when none available
system.cpu.iq.fu_full::SimdAddAcc                   0      0.00%      1.37% # attempts to use FU when none available
system.cpu.iq.fu_full::SimdAlu                      3      0.00%      1.37% # attempts to use FU when none available
system.cpu.iq.fu_full::SimdCmp                      0      0.00%      1.37% # attempts to use FU when none available
system.cpu.iq.fu_full::SimdCvt                      0      0.00%      1.37% # attempts to use FU when none available
system.cpu.iq.fu_full::SimdMisc                     0      0.00%      1.37% # attempts to use FU when none available
system.cpu.iq.fu_full::SimdMult                     0      0.00%      1.37% # attempts to use FU when none available
system.cpu.iq.fu_full::SimdMultAcc                  0      0.00%      1.37% # attempts to use FU when none available
system.cpu.iq.fu_full::SimdShift                    0      0.00%      1.37% # attempts to use FU when none available
system.cpu.iq.fu_full::SimdShiftAcc                 0      0.00%      1.37% # attempts to use FU when none available
system.cpu.iq.fu_full::SimdDiv                      0      0.00%      1.37% # attempts to use FU when none available
system.cpu.iq.fu_full::SimdSqrt                     0      0.00%      1.37% # attempts to use FU when none available
system.cpu.iq.fu_full::SimdFloatAdd                 0      0.00%      1.37% # attempts to use FU when none available
system.cpu.iq.fu_full::SimdFloatAlu                 0      0.00%      1.37% # attempts to use FU when none available
system.cpu.iq.fu_full::SimdFloatCmp                 0      0.00%      1.37% # attempts to use FU when none available
system.cpu.iq.fu_full::SimdFloatCvt                 0      0.00%      1.37% # attempts to use FU when none available
system.cpu.iq.fu_full::SimdFloatDiv                 0      0.00%      1.37% # attempts to use FU when none available
system.cpu.iq.fu_full::SimdFloatMisc                0      0.00%      1.37% # attempts to use FU when none available
system.cpu.iq.fu_full::SimdFloatMult                0      0.00%      1.37% # attempts to use FU when none available
system.cpu.iq.fu_full::SimdFloatMultAcc             0      0.00%      1.37% # attempts to use FU when none available
system.cpu.iq.fu_full::SimdFloatSqrt                0      0.00%      1.37% # attempts to use FU when none available
system.cpu.iq.fu_full::SimdReduceAdd                0      0.00%      1.37% # attempts to use FU when none available
system.cpu.iq.fu_full::SimdReduceAlu                0      0.00%      1.37% # attempts to use FU when none available
system.cpu.iq.fu_full::SimdReduceCmp                0      0.00%      1.37% # attempts to use FU when none available
system.cpu.iq.fu_full::SimdFloatReduceAdd            0      0.00%      1.37% # attempts to use FU when none available
system.cpu.iq.fu_full::SimdFloatReduceCmp            0      0.00%      1.37% # attempts to use FU when none available
system.cpu.iq.fu_full::SimdAes                      0      0.00%      1.37% # attempts to use FU when none available
system.cpu.iq.fu_full::SimdAesMix                   0      0.00%      1.37% # attempts to use FU when none available
system.cpu.iq.fu_full::SimdSha1Hash                 0      0.00%      1.37% # attempts to use FU when none available
system.cpu.iq.fu_full::SimdSha1Hash2                0      0.00%      1.37% # attempts to use FU when none available
system.cpu.iq.fu_full::SimdSha256Hash               0      0.00%      1.37% # attempts to use FU when none available
system.cpu.iq.fu_full::SimdSha256Hash2              0      0.00%      1.37% # attempts to use FU when none available
system.cpu.iq.fu_full::SimdShaSigma2                0      0.00%      1.37% # attempts to use FU when none available
system.cpu.iq.fu_full::SimdShaSigma3                0      0.00%      1.37% # attempts to use FU when none available
system.cpu.iq.fu_full::SimdPredAlu                  0      0.00%      1.37% # attempts to use FU when none available
system.cpu.iq.fu_full::MemRead                 457259     98.62%     99.99% # attempts to use FU when none available
system.cpu.iq.fu_full::MemWrite                    29      0.01%    100.00% # attempts to use FU when none available
system.cpu.iq.fu_full::FloatMemRead                 1      0.00%    100.00% # attempts to use FU when none available
system.cpu.iq.fu_full::FloatMemWrite                5      0.00%    100.00% # attempts to use FU when none available
system.cpu.iq.fu_full::IprAccess                    0      0.00%    100.00% # attempts to use FU when none available
system.cpu.iq.fu_full::InstPrefetch                 0      0.00%    100.00% # attempts to use FU when none available
system.cpu.iq.int_alu_accesses               12905382                       # Number of integer alu accesses
system.cpu.iq.int_inst_queue_reads           35914269                       # Number of integer instruction queue reads
system.cpu.iq.int_inst_queue_wakeup_accesses      9514448                       # Number of integer instruction queue wakeup accesses
system.cpu.iq.int_inst_queue_writes           9529893                       # Number of integer instruction queue writes
system.cpu.iq.iqInstsAdded                    9519716                       # Number of instructions added to the IQ (excludes non-spec)
system.cpu.iq.iqInstsIssued                  12442436                       # Number of instructions issued
system.cpu.iq.iqNonSpecInstsAdded                  71                       # Number of non-speculative instructions added to the IQ
system.cpu.iq.iqSquashedInstsExamined           10832                       # Number of squashed instructions iterated over during squash; mainly for profiling
system.cpu.iq.iqSquashedInstsIssued                59                       # Number of squashed instructions issued
system.cpu.iq.iqSquashedNonSpecRemoved             63                       # Number of squashed non-spec instructions that were removed
system.cpu.iq.iqSquashedOperandsExamined        15133                       # Number of squashed operands that are examined and possibly removed from graph
system.cpu.iq.issued_per_cycle::samples      10566560                       # Number of insts issued each cycle
system.cpu.iq.issued_per_cycle::mean         1.177529                       # Number of insts issued each cycle
system.cpu.iq.issued_per_cycle::stdev        1.721133                       # Number of insts issued each cycle
system.cpu.iq.issued_per_cycle::underflows            0      0.00%      0.00% # Number of insts issued each cycle
system.cpu.iq.issued_per_cycle::0             5491367     51.97%     51.97% # Number of insts issued each cycle
system.cpu.iq.issued_per_cycle::1             2335648     22.10%     74.07% # Number of insts issued each cycle
system.cpu.iq.issued_per_cycle::2              800766      7.58%     81.65% # Number of insts issued each cycle
system.cpu.iq.issued_per_cycle::3              465624      4.41%     86.06% # Number of insts issued each cycle
system.cpu.iq.issued_per_cycle::4              806606      7.63%     93.69% # Number of insts issued each cycle
system.cpu.iq.issued_per_cycle::5              343168      3.25%     96.94% # Number of insts issued each cycle
system.cpu.iq.issued_per_cycle::6              177983      1.68%     98.62% # Number of insts issued each cycle
system.cpu.iq.issued_per_cycle::7               64962      0.61%     99.24% # Number of insts issued each cycle
system.cpu.iq.issued_per_cycle::8               80436      0.76%    100.00% # Number of insts issued each cycle
system.cpu.iq.issued_per_cycle::overflows            0      0.00%    100.00% # Number of insts issued each cycle
system.cpu.iq.issued_per_cycle::min_value            0                       # Number of insts issued each cycle
system.cpu.iq.issued_per_cycle::max_value            8                       # Number of insts issued each cycle
system.cpu.iq.issued_per_cycle::total        10566560                       # Number of insts issued each cycle
system.cpu.iq.rate                           1.176946                       # Inst issue rate
system.cpu.iq.vec_alu_accesses                      0                       # Number of vector alu accesses
system.cpu.iq.vec_inst_queue_reads                  0                       # Number of vector instruction queue reads
system.cpu.iq.vec_inst_queue_wakeup_accesses            0                       # Number of vector instruction queue wakeup accesses
system.cpu.iq.vec_inst_queue_writes                 0                       # Number of vector instruction queue writes
system.cpu.itb.rdAccesses                           0                       # TLB accesses on read requests
system.cpu.itb.rdMisses                             0                       # TLB misses on read requests
system.cpu.itb.wrAccesses                     1001888                       # TLB accesses on write requests
system.cpu.itb.wrMisses                            35                       # TLB misses on write requests
system.cpu.memDep0.conflictingLoads                42                       # Number of conflicting loads.
system.cpu.memDep0.conflictingStores               37                       # Number of conflicting stores.
system.cpu.memDep0.insertedLoads               502085                       # Number of loads inserted to the mem dependence unit.
system.cpu.memDep0.insertedStores                2050                       # Number of stores inserted to the mem dependence unit.
system.cpu.misc_regfile_reads                 4433176                       # number of misc regfile reads
system.cpu.misc_regfile_writes                      1                       # number of misc regfile writes
system.cpu.numCycles                         10571797                       # number of cpu cycles simulated
system.cpu.numWorkItemsCompleted                    0                       # number of work items this cpu completed
system.cpu.numWorkItemsStarted                      0                       # number of work items this cpu started
system.cpu.rename.BlockCycles                 7771392                       # Number of cycles rename is blocking
system.cpu.rename.CommittedMaps              18009965                       # Number of HB maps that are committed
system.cpu.rename.IQFullEvents                     19                       # Number of times rename has blocked due to IQ full
system.cpu.rename.IdleCycles                   615934                       # Number of cycles rename is idle
system.cpu.rename.ROBFullEvents               1113480                       # Number of times rename has blocked due to ROB full
system.cpu.rename.RenameLookups              20554855                       # Number of register rename lookups that rename has made
system.cpu.rename.RenamedInsts                9522642                       # Number of instructions processed by rename
system.cpu.rename.RenamedOperands            18024605                       # Number of destination operands rename has renamed
system.cpu.rename.RunCycles                    665868                       # Number of cycles rename is running
system.cpu.rename.SQFullEvents                   2256                       # Number of times rename has blocked due to SQ full
system.cpu.rename.SquashCycles                    490                       # Number of cycles rename is squashing
system.cpu.rename.UnblockCycles               1512406                       # Number of cycles rename is unblocking
system.cpu.rename.UndoneMaps                    14640                       # Number of HB maps that are undone due to squashing
system.cpu.rename.fp_rename_lookups               776                       # Number of floating rename lookups
system.cpu.rename.int_rename_lookups         14032534                       # Number of integer rename lookups
system.cpu.rename.serializeStallCycles            470                       # count of cycles rename stalled for serializing inst
system.cpu.rename.serializingInsts                 21                       # count of serializing insts renamed
system.cpu.rename.skidInsts                   5540479                       # count of insts added to the skid buffer
system.cpu.rename.tempSerializingInsts             16                       # count of temporary serializing insts renamed
system.cpu.rob.rob_reads                     19081973                       # The number of ROB reads
system.cpu.rob.rob_writes                    19041418                       # The number of ROB writes
system.cpu.timesIdled                             158                       # Number of times that the entire CPU went into an idle state and unscheduled itself
system.cpu.workload.numSyscalls                     7                       # Number of system calls
system.membus.snoop_filter.hit_multi_requests            1                       # Number of requests hitting in the snoop filter with multiple (>1) holders of the requested data.
system.membus.snoop_filter.hit_multi_snoops            0                       # Number of snoops hitting in the snoop filter with multiple (>1) holders of the requested data.
system.membus.snoop_filter.hit_single_requests       481856                       # Number of requests hitting in the snoop filter with a single holder of the requested data.
system.membus.snoop_filter.hit_single_snoops            0                       # Number of snoops hitting in the snoop filter with a single holder of the requested data.
system.membus.snoop_filter.tot_requests        966076                       # Total number of requests made to the snoop filter.
system.membus.snoop_filter.tot_snoops               0                       # Total number of snoops made to the snoop filter.
system.membus.pwrStateResidencyTicks::UNDEFINED  10571796000                       # Cumulative time (in ticks) in various power states
system.membus.trans_dist::ReadResp             484127                       # Transaction distribution
system.membus.trans_dist::WritebackDirty          113                       # Transaction distribution
system.membus.trans_dist::CleanEvict           481743                       # Transaction distribution
system.membus.trans_dist::ReadExReq                92                       # Transaction distribution
system.membus.trans_dist::ReadExResp               92                       # Transaction distribution
system.membus.trans_dist::ReadSharedReq        484128                       # Transaction distribution
system.membus.pkt_count_system.cpu.icache.mem_side::system.mem_ctrl.port          631                       # Packet count per connected master and slave (bytes)
system.membus.pkt_count_system.cpu.icache.mem_side::total          631                       # Packet count per connected master and slave (bytes)
system.membus.pkt_count_system.cpu.dcache.mem_side::system.mem_ctrl.port      1449664                       # Packet count per connected master and slave (bytes)
system.membus.pkt_count_system.cpu.dcache.mem_side::total      1449664                       # Packet count per connected master and slave (bytes)
system.membus.pkt_count::total                1450295                       # Packet count per connected master and slave (bytes)
system.membus.pkt_size_system.cpu.icache.mem_side::system.mem_ctrl.port        20160                       # Cumulative packet size per connected master and slave (bytes)
system.membus.pkt_size_system.cpu.icache.mem_side::total        20160                       # Cumulative packet size per connected master and slave (bytes)
system.membus.pkt_size_system.cpu.dcache.mem_side::system.mem_ctrl.port     30977088                       # Cumulative packet size per connected master and slave (bytes)
system.membus.pkt_size_system.cpu.dcache.mem_side::total     30977088                       # Cumulative packet size per connected master and slave (bytes)
system.membus.pkt_size::total                30997248                       # Cumulative packet size per connected master and slave (bytes)
system.membus.snoops                                0                       # Total snoops (count)
system.membus.snoopTraffic                          0                       # Total snoop traffic (bytes)
system.membus.snoop_fanout::samples            484220                       # Request fanout histogram
system.membus.snoop_fanout::mean             0.000002                       # Request fanout histogram
system.membus.snoop_fanout::stdev            0.001437                       # Request fanout histogram
system.membus.snoop_fanout::underflows              0      0.00%      0.00% # Request fanout histogram
system.membus.snoop_fanout::0                  484219    100.00%    100.00% # Request fanout histogram
system.membus.snoop_fanout::1                       1      0.00%    100.00% # Request fanout histogram
system.membus.snoop_fanout::2                       0      0.00%    100.00% # Request fanout histogram
system.membus.snoop_fanout::overflows               0      0.00%    100.00% # Request fanout histogram
system.membus.snoop_fanout::min_value               0                       # Request fanout histogram
system.membus.snoop_fanout::max_value               1                       # Request fanout histogram
system.membus.snoop_fanout::total              484220                       # Request fanout histogram
system.membus.reqLayer2.occupancy           966528000                       # Layer occupancy (ticks)
system.membus.reqLayer2.utilization               9.1                       # Layer utilization (%)
system.membus.respLayer1.occupancy         2694402750                       # Layer occupancy (ticks)
system.membus.respLayer1.utilization             25.5                       # Layer utilization (%)
system.membus.respLayer0.occupancy            1672000                       # Layer occupancy (ticks)
system.membus.respLayer0.utilization              0.0                       # Layer utilization (%)
system.mem_ctrl.pwrStateResidencyTicks::UNDEFINED  10571796000                       # Cumulative time (in ticks) in various power states
system.mem_ctrl.bytes_read::.cpu.inst           20160                       # Number of bytes read from this memory
system.mem_ctrl.bytes_read::.cpu.data        30969856                       # Number of bytes read from this memory
system.mem_ctrl.bytes_read::total            30990016                       # Number of bytes read from this memory
system.mem_ctrl.bytes_inst_read::.cpu.inst        20160                       # Number of instructions bytes read from this memory
system.mem_ctrl.bytes_inst_read::total          20160                       # Number of instructions bytes read from this memory
system.mem_ctrl.bytes_written::.writebacks         7232                       # Number of bytes written to this memory
system.mem_ctrl.bytes_written::total             7232                       # Number of bytes written to this memory
system.mem_ctrl.num_reads::.cpu.inst              315                       # Number of read requests responded to by this memory
system.mem_ctrl.num_reads::.cpu.data           483904                       # Number of read requests responded to by this memory
system.mem_ctrl.num_reads::total               484219                       # Number of read requests responded to by this memory
system.mem_ctrl.num_writes::.writebacks           113                       # Number of write requests responded to by this memory
system.mem_ctrl.num_writes::total                 113                       # Number of write requests responded to by this memory
system.mem_ctrl.bw_read::.cpu.inst            1906961                       # Total read bandwidth from this memory (bytes/s)
system.mem_ctrl.bw_read::.cpu.data         2929479154                       # Total read bandwidth from this memory (bytes/s)
system.mem_ctrl.bw_read::total             2931386115                       # Total read bandwidth from this memory (bytes/s)
system.mem_ctrl.bw_inst_read::.cpu.inst       1906961                       # Instruction read bandwidth from this memory (bytes/s)
system.mem_ctrl.bw_inst_read::total           1906961                       # Instruction read bandwidth from this memory (bytes/s)
system.mem_ctrl.bw_write::.writebacks          684084                       # Write bandwidth from this memory (bytes/s)
system.mem_ctrl.bw_write::total                684084                       # Write bandwidth from this memory (bytes/s)
system.mem_ctrl.bw_total::.writebacks          684084                       # Total bandwidth to/from this memory (bytes/s)
system.mem_ctrl.bw_total::.cpu.inst           1906961                       # Total bandwidth to/from this memory (bytes/s)
system.mem_ctrl.bw_total::.cpu.data        2929479154                       # Total bandwidth to/from this memory (bytes/s)
system.mem_ctrl.bw_total::total            2932070199                       # Total bandwidth to/from this memory (bytes/s)
system.mem_ctrl.avgPriority_.writebacks::samples       113.00                       # Average QoS priority value for accepted requests
system.mem_ctrl.avgPriority_.cpu.inst::samples       316.00                       # Average QoS priority value for accepted requests
system.mem_ctrl.avgPriority_.cpu.data::samples    483903.00                       # Average QoS priority value for accepted requests
system.mem_ctrl.priorityMinLatency       0.000000018750                       # per QoS priority minimum request to response latency (s)
system.mem_ctrl.priorityMaxLatency       0.000301538250                       # per QoS priority maximum request to response latency (s)
system.mem_ctrl.numReadWriteTurnArounds             6                       # Number of turnarounds from READ to WRITE
system.mem_ctrl.numWriteReadTurnArounds             6                       # Number of turnarounds from WRITE to READ
system.mem_ctrl.numStayReadState               917334                       # Number of times bus staying in READ state
system.mem_ctrl.numStayWriteState                  90                       # Number of times bus staying in WRITE state
system.mem_ctrl.readReqs                       484220                       # Number of read requests accepted
system.mem_ctrl.writeReqs                         113                       # Number of write requests accepted
system.mem_ctrl.readBursts                     484220                       # Number of DRAM read bursts, including those serviced by the write queue
system.mem_ctrl.writeBursts                       113                       # Number of DRAM write bursts, including those merged in the write queue
system.mem_ctrl.servicedByWrQ                       1                       # Number of DRAM read bursts serviced by the write queue
system.mem_ctrl.mergedWrBursts                      0                       # Number of DRAM write bursts merged with an existing one
system.mem_ctrl.neitherReadNorWriteReqs             0                       # Number of requests that are neither read nor write
system.mem_ctrl.perBankRdBursts::0              30284                       # Per bank write bursts
system.mem_ctrl.perBankRdBursts::1              30224                       # Per bank write bursts
system.mem_ctrl.perBankRdBursts::2              30375                       # Per bank write bursts
system.mem_ctrl.perBankRdBursts::3              30170                       # Per bank write bursts
system.mem_ctrl.perBankRdBursts::4              30305                       # Per bank write bursts
system.mem_ctrl.perBankRdBursts::5              30070                       # Per bank write bursts
system.mem_ctrl.perBankRdBursts::6              30318                       # Per bank write bursts
system.mem_ctrl.perBankRdBursts::7              30466                       # Per bank write bursts
system.mem_ctrl.perBankRdBursts::8              30174                       # Per bank write bursts
system.mem_ctrl.perBankRdBursts::9              30545                       # Per bank write bursts
system.mem_ctrl.perBankRdBursts::10             30223                       # Per bank write bursts
system.mem_ctrl.perBankRdBursts::11             30181                       # Per bank write bursts
system.mem_ctrl.perBankRdBursts::12             30228                       # Per bank write bursts
system.mem_ctrl.perBankRdBursts::13             30242                       # Per bank write bursts
system.mem_ctrl.perBankRdBursts::14             30208                       # Per bank write bursts
system.mem_ctrl.perBankRdBursts::15             30206                       # Per bank write bursts
system.mem_ctrl.perBankWrBursts::0                 24                       # Per bank write bursts
system.mem_ctrl.perBankWrBursts::1                  2                       # Per bank write bursts
system.mem_ctrl.perBankWrBursts::2                 17                       # Per bank write bursts
system.mem_ctrl.perBankWrBursts::3                  0                       # Per bank write bursts
system.mem_ctrl.perBankWrBursts::4                  0                       # Per bank write bursts
system.mem_ctrl.perBankWrBursts::5                  0                       # Per bank write bursts
system.mem_ctrl.perBankWrBursts::6                  0                       # Per bank write bursts
system.mem_ctrl.perBankWrBursts::7                  0                       # Per bank write bursts
system.mem_ctrl.perBankWrBursts::8                  0                       # Per bank write bursts
system.mem_ctrl.perBankWrBursts::9                  0                       # Per bank write bursts
system.mem_ctrl.perBankWrBursts::10                 0                       # Per bank write bursts
system.mem_ctrl.perBankWrBursts::11                 0                       # Per bank write bursts
system.mem_ctrl.perBankWrBursts::12                 0                       # Per bank write bursts
system.mem_ctrl.perBankWrBursts::13                 0                       # Per bank write bursts
system.mem_ctrl.perBankWrBursts::14                40                       # Per bank write bursts
system.mem_ctrl.perBankWrBursts::15                13                       # Per bank write bursts
system.mem_ctrl.avgRdQLen                        3.28                       # Average read queue length when enqueuing
system.mem_ctrl.avgWrQLen                       32.83                       # Average write queue length when enqueuing
system.mem_ctrl.totQLat                   16419551750                       # Total ticks spent queuing
system.mem_ctrl.totBusLat                  2421095000                       # Total ticks spent in databus transfers
system.mem_ctrl.totMemAccLat              25498658000                       # Total ticks spent from burst creation until serviced by the DRAM
system.mem_ctrl.avgQLat                      33909.35                       # Average queueing delay per DRAM burst
system.mem_ctrl.avgBusLat                     5000.00                       # Average bus latency per DRAM burst
system.mem_ctrl.avgMemAccLat                 52659.35                       # Average memory access latency per DRAM burst
system.mem_ctrl.numRdRetry                          0                       # Number of times read queue was full causing retry
system.mem_ctrl.numWrRetry                          0                       # Number of times write queue was full causing retry
system.mem_ctrl.readRowHits                     25824                       # Number of row buffer hits during reads
system.mem_ctrl.writeRowHits                       83                       # Number of row buffer hits during writes
system.mem_ctrl.readRowHitRate                   5.33                       # Row buffer hit rate for reads
system.mem_ctrl.writeRowHitRate                 73.45                       # Row buffer hit rate for writes
system.mem_ctrl.readPktSize::0                      0                       # Read request sizes (log2)
system.mem_ctrl.readPktSize::1                      0                       # Read request sizes (log2)
system.mem_ctrl.readPktSize::2                      0                       # Read request sizes (log2)
system.mem_ctrl.readPktSize::3                      0                       # Read request sizes (log2)
system.mem_ctrl.readPktSize::4                      0                       # Read request sizes (log2)
system.mem_ctrl.readPktSize::5                      0                       # Read request sizes (log2)
system.mem_ctrl.readPktSize::6                 484220                       # Read request sizes (log2)
system.mem_ctrl.writePktSize::0                     0                       # Write request sizes (log2)
system.mem_ctrl.writePktSize::1                     0                       # Write request sizes (log2)
system.mem_ctrl.writePktSize::2                     0                       # Write request sizes (log2)
system.mem_ctrl.writePktSize::3                     0                       # Write request sizes (log2)
system.mem_ctrl.writePktSize::4                     0                       # Write request sizes (log2)
system.mem_ctrl.writePktSize::5                     0                       # Write request sizes (log2)
system.mem_ctrl.writePktSize::6                   113                       # Write request sizes (log2)
system.mem_ctrl.rdQLenPdf::0                    48093                       # What read queue length does an incoming req see
system.mem_ctrl.rdQLenPdf::1                   146263                       # What read queue length does an incoming req see
system.mem_ctrl.rdQLenPdf::2                   177280                       # What read queue length does an incoming req see
system.mem_ctrl.rdQLenPdf::3                   112581                       # What read queue length does an incoming req see
system.mem_ctrl.rdQLenPdf::4                        2                       # What read queue length does an incoming req see
system.mem_ctrl.rdQLenPdf::5                        0                       # What read queue length does an incoming req see
system.mem_ctrl.rdQLenPdf::6                        0                       # What read queue length does an incoming req see
system.mem_ctrl.rdQLenPdf::7                        0                       # What read queue length does an incoming req see
system.mem_ctrl.rdQLenPdf::8                        0                       # What read queue length does an incoming req see
system.mem_ctrl.rdQLenPdf::9                        0                       # What read queue length does an incoming req see
system.mem_ctrl.rdQLenPdf::10                       0                       # What read queue length does an incoming req see
system.mem_ctrl.rdQLenPdf::11                       0                       # What read queue length does an incoming req see
system.mem_ctrl.rdQLenPdf::12                       0                       # What read queue length does an incoming req see
system.mem_ctrl.rdQLenPdf::13                       0                       # What read queue length does an incoming req see
system.mem_ctrl.rdQLenPdf::14                       0                       # What read queue length does an incoming req see
system.mem_ctrl.rdQLenPdf::15                       0                       # What read queue length does an incoming req see
system.mem_ctrl.rdQLenPdf::16                       0                       # What read queue length does an incoming req see
system.mem_ctrl.rdQLenPdf::17                       0                       # What read queue length does an incoming req see
system.mem_ctrl.rdQLenPdf::18                       0                       # What read queue length does an incoming req see
system.mem_ctrl.rdQLenPdf::19                       0                       # What read queue length does an incoming req see
system.mem_ctrl.rdQLenPdf::20                       0                       # What read queue length does an incoming req see
system.mem_ctrl.rdQLenPdf::21                       0                       # What read queue length does an incoming req see
system.mem_ctrl.rdQLenPdf::22                       0                       # What read queue length does an incoming req see
system.mem_ctrl.rdQLenPdf::23                       0                       # What read queue length does an incoming req see
system.mem_ctrl.rdQLenPdf::24                       0                       # What read queue length does an incoming req see
system.mem_ctrl.rdQLenPdf::25                       0                       # What read queue length does an incoming req see
system.mem_ctrl.rdQLenPdf::26                       0                       # What read queue length does an incoming req see
system.mem_ctrl.rdQLenPdf::27                       0                       # What read queue length does an incoming req see
system.mem_ctrl.rdQLenPdf::28                       0                       # What read queue length does an incoming req see
system.mem_ctrl.rdQLenPdf::29                       0                       # What read queue length does an incoming req see
system.mem_ctrl.rdQLenPdf::30                       0                       # What read queue length does an incoming req see
system.mem_ctrl.rdQLenPdf::31                       0                       # What read queue length does an incoming req see
system.mem_ctrl.wrQLenPdf::0                        1                       # What write queue length does an incoming req see
system.mem_ctrl.wrQLenPdf::1                        1                       # What write queue length does an incoming req see
system.mem_ctrl.wrQLenPdf::2                        1                       # What write queue length does an incoming req see
system.mem_ctrl.wrQLenPdf::3                        1                       # What write queue length does an incoming req see
system.mem_ctrl.wrQLenPdf::4                        1                       # What write queue length does an incoming req see
system.mem_ctrl.wrQLenPdf::5                        1                       # What write queue length does an incoming req see
system.mem_ctrl.wrQLenPdf::6                        1                       # What write queue length does an incoming req see
system.mem_ctrl.wrQLenPdf::7                        1                       # What write queue length does an incoming req see
system.mem_ctrl.wrQLenPdf::8                        1                       # What write queue length does an incoming req see
system.mem_ctrl.wrQLenPdf::9                        1                       # What write queue length does an incoming req see
system.mem_ctrl.wrQLenPdf::10                       1                       # What write queue length does an incoming req see
system.mem_ctrl.wrQLenPdf::11                       1                       # What write queue length does an incoming req see
system.mem_ctrl.wrQLenPdf::12                       1                       # What write queue length does an incoming req see
system.mem_ctrl.wrQLenPdf::13                       1                       # What write queue length does an incoming req see
system.mem_ctrl.wrQLenPdf::14                       1                       # What write queue length does an incoming req see
system.mem_ctrl.wrQLenPdf::15                       1                       # What write queue length does an incoming req see
system.mem_ctrl.wrQLenPdf::16                       1                       # What write queue length does an incoming req see
system.mem_ctrl.wrQLenPdf::17                       5                       # What write queue length does an incoming req see
system.mem_ctrl.wrQLenPdf::18                       7                       # What write queue length does an incoming req see
system.mem_ctrl.wrQLenPdf::19                       6                       # What write queue length does an incoming req see
system.mem_ctrl.wrQLenPdf::20                       6                       # What write queue length does an incoming req see
system.mem_ctrl.wrQLenPdf::21                       6                       # What write queue length does an incoming req see
system.mem_ctrl.wrQLenPdf::22                       6                       # What write queue length does an incoming req see
system.mem_ctrl.wrQLenPdf::23                       6                       # What write queue length does an incoming req see
system.mem_ctrl.wrQLenPdf::24                       6                       # What write queue length does an incoming req see
system.mem_ctrl.wrQLenPdf::25                       6                       # What write queue length does an incoming req see
system.mem_ctrl.wrQLenPdf::26                       6                       # What write queue length does an incoming req see
system.mem_ctrl.wrQLenPdf::27                       6                       # What write queue length does an incoming req see
system.mem_ctrl.wrQLenPdf::28                       6                       # What write queue length does an incoming req see
system.mem_ctrl.wrQLenPdf::29                       6                       # What write queue length does an incoming req see
system.mem_ctrl.wrQLenPdf::30                       6                       # What write queue length does an incoming req see
system.mem_ctrl.wrQLenPdf::31                       6                       # What write queue length does an incoming req see
system.mem_ctrl.wrQLenPdf::32                       6                       # What write queue length does an incoming req see
system.mem_ctrl.wrQLenPdf::33                       0                       # What write queue length does an incoming req see
system.mem_ctrl.wrQLenPdf::34                       0                       # What write queue length does an incoming req see
system.mem_ctrl.wrQLenPdf::35                       0                       # What write queue length does an incoming req see
system.mem_ctrl.wrQLenPdf::36                       0                       # What write queue length does an incoming req see
system.mem_ctrl.wrQLenPdf::37                       0                       # What write queue length does an incoming req see
system.mem_ctrl.wrQLenPdf::38                       0                       # What write queue length does an incoming req see
system.mem_ctrl.wrQLenPdf::39                       0                       # What write queue length does an incoming req see
system.mem_ctrl.wrQLenPdf::40                       0                       # What write queue length does an incoming req see
system.mem_ctrl.wrQLenPdf::41                       0                       # What write queue length does an incoming req see
system.mem_ctrl.wrQLenPdf::42                       0                       # What write queue length does an incoming req see
system.mem_ctrl.wrQLenPdf::43                       0                       # What write queue length does an incoming req see
system.mem_ctrl.wrQLenPdf::44                       0                       # What write queue length does an incoming req see
system.mem_ctrl.wrQLenPdf::45                       0                       # What write queue length does an incoming req see
system.mem_ctrl.wrQLenPdf::46                       0                       # What write queue length does an incoming req see
system.mem_ctrl.wrQLenPdf::47                       0                       # What write queue length does an incoming req see
system.mem_ctrl.wrQLenPdf::48                       0                       # What write queue length does an incoming req see
system.mem_ctrl.wrQLenPdf::49                       0                       # What write queue length does an incoming req see
system.mem_ctrl.wrQLenPdf::50                       0                       # What write queue length does an incoming req see
system.mem_ctrl.wrQLenPdf::51                       0                       # What write queue length does an incoming req see
system.mem_ctrl.wrQLenPdf::52                       0                       # What write queue length does an incoming req see
system.mem_ctrl.wrQLenPdf::53                       0                       # What write queue length does an incoming req see
system.mem_ctrl.wrQLenPdf::54                       0                       # What write queue length does an incoming req see
system.mem_ctrl.wrQLenPdf::55                       0                       # What write queue length does an incoming req see
system.mem_ctrl.wrQLenPdf::56                       0                       # What write queue length does an incoming req see
system.mem_ctrl.wrQLenPdf::57                       0                       # What write queue length does an incoming req see
system.mem_ctrl.wrQLenPdf::58                       0                       # What write queue length does an incoming req see
system.mem_ctrl.wrQLenPdf::59                       0                       # What write queue length does an incoming req see
system.mem_ctrl.wrQLenPdf::60                       0                       # What write queue length does an incoming req see
system.mem_ctrl.wrQLenPdf::61                       0                       # What write queue length does an incoming req see
system.mem_ctrl.wrQLenPdf::62                       0                       # What write queue length does an incoming req see
system.mem_ctrl.wrQLenPdf::63                       0                       # What write queue length does an incoming req see
system.mem_ctrl.bytesPerActivate::samples       458392                       # Bytes accessed per row activation
system.mem_ctrl.bytesPerActivate::mean      67.612908                       # Bytes accessed per row activation
system.mem_ctrl.bytesPerActivate::gmean     66.411257                       # Bytes accessed per row activation
system.mem_ctrl.bytesPerActivate::stdev     17.858649                       # Bytes accessed per row activation
system.mem_ctrl.bytesPerActivate::0-127        435301     94.96%     94.96% # Bytes accessed per row activation
system.mem_ctrl.bytesPerActivate::128-255        22654      4.94%     99.90% # Bytes accessed per row activation
system.mem_ctrl.bytesPerActivate::256-383          336      0.07%     99.98% # Bytes accessed per row activation
system.mem_ctrl.bytesPerActivate::384-511           53      0.01%     99.99% # Bytes accessed per row activation
system.mem_ctrl.bytesPerActivate::512-639           18      0.00%     99.99% # Bytes accessed per row activation
system.mem_ctrl.bytesPerActivate::640-767           13      0.00%    100.00% # Bytes accessed per row activation
system.mem_ctrl.bytesPerActivate::768-895            6      0.00%    100.00% # Bytes accessed per row activation
system.mem_ctrl.bytesPerActivate::896-1023            3      0.00%    100.00% # Bytes accessed per row activation
system.mem_ctrl.bytesPerActivate::1024-1151            8      0.00%    100.00% # Bytes accessed per row activation
system.mem_ctrl.bytesPerActivate::total        458392                       # Bytes accessed per row activation
system.mem_ctrl.rdPerTurnAround::samples            6                       # Reads before turning the bus around for writes
system.mem_ctrl.rdPerTurnAround::mean     1540.833333                       # Reads before turning the bus around for writes
system.mem_ctrl.rdPerTurnAround::gmean     908.427885                       # Reads before turning the bus around for writes
system.mem_ctrl.rdPerTurnAround::stdev    2055.697003                       # Reads before turning the bus around for writes
system.mem_ctrl.rdPerTurnAround::256-511            2     33.33%     33.33% # Reads before turning the bus around for writes
system.mem_ctrl.rdPerTurnAround::512-767            2     33.33%     66.67% # Reads before turning the bus around for writes
system.mem_ctrl.rdPerTurnAround::1280-1535            1     16.67%     83.33% # Reads before turning the bus around for writes
system.mem_ctrl.rdPerTurnAround::5632-5887            1     16.67%    100.00% # Reads before turning the bus around for writes
system.mem_ctrl.rdPerTurnAround::total              6                       # Reads before turning the bus around for writes
system.mem_ctrl.wrPerTurnAround::samples            6                       # Writes before turning the bus around for reads
system.mem_ctrl.wrPerTurnAround::mean              16                       # Writes before turning the bus around for reads
system.mem_ctrl.wrPerTurnAround::gmean      16.000000                       # Writes before turning the bus around for reads
system.mem_ctrl.wrPerTurnAround::16                 6    100.00%    100.00% # Writes before turning the bus around for reads
system.mem_ctrl.wrPerTurnAround::total              6                       # Writes before turning the bus around for reads
system.mem_ctrl.bytesReadDRAM                30990016                       # Total number of bytes read from DRAM
system.mem_ctrl.bytesReadWrQ                       64                       # Total number of bytes read from write queue
system.mem_ctrl.bytesWritten                     6144                       # Total number of bytes written to DRAM
system.mem_ctrl.bytesReadSys                 30990080                       # Total read bytes from the system interface side
system.mem_ctrl.bytesWrittenSys                  7232                       # Total written bytes from the system interface side
system.mem_ctrl.avgRdBW                       2931.39                       # Average DRAM read bandwidth in MiByte/s
system.mem_ctrl.avgWrBW                          0.58                       # Average achieved write bandwidth in MiByte/s
system.mem_ctrl.avgRdBWSys                    2931.39                       # Average system read bandwidth in MiByte/s
system.mem_ctrl.avgWrBWSys                       0.68                       # Average system write bandwidth in MiByte/s
system.mem_ctrl.peakBW                       12800.00                       # Theoretical peak bandwidth in MiByte/s
system.mem_ctrl.busUtil                         22.91                       # Data bus utilization in percentage
system.mem_ctrl.busUtilRead                     22.90                       # Data bus utilization in percentage for reads
system.mem_ctrl.busUtilWrite                     0.00                       # Data bus utilization in percentage for writes
system.mem_ctrl.totGap                    10571787000                       # Total gap between requests
system.mem_ctrl.avgGap                       21827.52                       # Average gap between requests
system.mem_ctrl.masterReadBytes::.cpu.inst        20224                       # Per-master bytes read from memory
system.mem_ctrl.masterReadBytes::.cpu.data     30969792                       # Per-master bytes read from memory
system.mem_ctrl.masterWriteBytes::.writebacks         6144                       # Per-master bytes write to memory
system.mem_ctrl.masterReadRate::.cpu.inst 1913014.590898273280                       # Per-master bytes read from memory rate (Bytes/sec)
system.mem_ctrl.masterReadRate::.cpu.data 2929473099.934958934784                       # Per-master bytes read from memory rate (Bytes/sec)
system.mem_ctrl.masterWriteRate::.writebacks 581168.989639981766                       # Per-master bytes write to memory rate (Bytes/sec)
system.mem_ctrl.masterReadAccesses::.cpu.inst          316                       # Per-master read serviced memory accesses
system.mem_ctrl.masterReadAccesses::.cpu.data       483904                       # Per-master read serviced memory accesses
system.mem_ctrl.masterWriteAccesses::.writebacks          113                       # Per-master write serviced memory accesses
system.mem_ctrl.masterReadTotalLat::.cpu.inst      8551000                       # Per-master read total memory access latency
system.mem_ctrl.masterReadTotalLat::.cpu.data  25490107000                       # Per-master read total memory access latency
system.mem_ctrl.masterWriteTotalLat::.writebacks   3226698500                       # Per-master write total memory access latency
system.mem_ctrl.masterReadAvgLat::.cpu.inst     27060.13                       # Per-master read average memory access latency
system.mem_ctrl.masterReadAvgLat::.cpu.data     52675.96                       # Per-master read average memory access latency
system.mem_ctrl.masterWriteAvgLat::.writebacks  28554853.98                       # Per-master write average memory access latency
[...]
system.cpu.icache.overall_mshr_misses::total          316                       # number of overall MSHR misses
system.cpu.icache.demand_mshr_miss_latency::.cpu.inst     18716000                       # number of demand (read+write) MSHR miss cycles
system.cpu.icache.demand_mshr_miss_latency::total     18716000                       # number of demand (read+write) MSHR miss cycles
system.cpu.icache.overall_mshr_miss_latency::.cpu.inst     18716000                       # number of overall MSHR miss cycles
system.cpu.icache.overall_mshr_miss_latency::total     18716000                       # number of overall MSHR miss cycles
system.cpu.icache.demand_mshr_miss_rate::.cpu.inst     0.000315                       # mshr miss rate for demand accesses
system.cpu.icache.demand_mshr_miss_rate::total     0.000315                       # mshr miss rate for demand accesses
system.cpu.icache.overall_mshr_miss_rate::.cpu.inst     0.000315                       # mshr miss rate for overall accesses
system.cpu.icache.overall_mshr_miss_rate::total     0.000315                       # mshr miss rate for overall accesses
system.cpu.icache.demand_avg_mshr_miss_latency::.cpu.inst 59227.848101                       # average overall mshr miss latency
system.cpu.icache.demand_avg_mshr_miss_latency::total 59227.848101                       # average overall mshr miss latency
system.cpu.icache.overall_avg_mshr_miss_latency::.cpu.inst 59227.848101                       # average overall mshr miss latency
system.cpu.icache.overall_avg_mshr_miss_latency::total 59227.848101                       # average overall mshr miss latency
system.cpu.icache.replacements                      0                       # number of replacements
system.cpu.icache.ReadReq_hits::.cpu.inst      1001471                       # number of ReadReq hits
system.cpu.icache.ReadReq_hits::total         1001471                       # number of ReadReq hits
system.cpu.icache.ReadReq_misses::.cpu.inst          411                       # number of ReadReq misses
system.cpu.icache.ReadReq_misses::total           411                       # number of ReadReq misses
system.cpu.icache.ReadReq_miss_latency::.cpu.inst     22765000                       # number of ReadReq miss cycles
system.cpu.icache.ReadReq_miss_latency::total     22765000                       # number of ReadReq miss cycles
system.cpu.icache.ReadReq_accesses::.cpu.inst      1001882                       # number of ReadReq accesses(hits+misses)
system.cpu.icache.ReadReq_accesses::total      1001882                       # number of ReadReq accesses(hits+misses)
system.cpu.icache.ReadReq_miss_rate::.cpu.inst     0.000410                       # miss rate for ReadReq accesses
system.cpu.icache.ReadReq_miss_rate::total     0.000410                       # miss rate for ReadReq accesses
system.cpu.icache.ReadReq_avg_miss_latency::.cpu.inst 55389.294404                       # average ReadReq miss latency
system.cpu.icache.ReadReq_avg_miss_latency::total 55389.294404                       # average ReadReq miss latency
system.cpu.icache.ReadReq_mshr_hits::.cpu.inst           95                       # number of ReadReq MSHR hits
system.cpu.icache.ReadReq_mshr_hits::total           95                       # number of ReadReq MSHR hits
system.cpu.icache.ReadReq_mshr_misses::.cpu.inst          316                       # number of ReadReq MSHR misses
system.cpu.icache.ReadReq_mshr_misses::total          316                       # number of ReadReq MSHR misses
system.cpu.icache.ReadReq_mshr_miss_latency::.cpu.inst     18716000                       # number of ReadReq MSHR miss cycles
system.cpu.icache.ReadReq_mshr_miss_latency::total     18716000                       # number of ReadReq MSHR miss cycles
system.cpu.icache.ReadReq_mshr_miss_rate::.cpu.inst     0.000315                       # mshr miss rate for ReadReq accesses
system.cpu.icache.ReadReq_mshr_miss_rate::total     0.000315                       # mshr miss rate for ReadReq accesses
system.cpu.icache.ReadReq_avg_mshr_miss_latency::.cpu.inst 59227.848101                       # average ReadReq mshr miss latency
system.cpu.icache.ReadReq_avg_mshr_miss_latency::total 59227.848101                       # average ReadReq mshr miss latency
system.cpu.icache.tags.pwrStateResidencyTicks::UNDEFINED  10571796000                       # Cumulative time (in ticks) in various power states
system.cpu.icache.tags.tagsinuse           293.718868                       # Cycle average of tags in use
system.cpu.icache.tags.total_refs             1001786                       # Total number of references to valid blocks.
system.cpu.icache.tags.sampled_refs               315                       # Sample count of references to valid blocks.
system.cpu.icache.tags.avg_refs           3180.273016                       # Average number of references to valid blocks.
system.cpu.icache.tags.warmup_cycle             77000                       # Cycle when the warmup percentage was hit.
system.cpu.icache.tags.occ_blocks::.cpu.inst   293.718868                       # Average occupied blocks per requestor
system.cpu.icache.tags.occ_percent::.cpu.inst     0.143417                       # Average percentage of cache occupancy
system.cpu.icache.tags.occ_percent::total     0.143417                       # Average percentage of cache occupancy
system.cpu.icache.tags.occ_task_id_blocks::1024          315                       # Occupied blocks per task id
system.cpu.icache.tags.age_task_id_blocks_1024::0           21                       # Occupied blocks per task id
system.cpu.icache.tags.age_task_id_blocks_1024::4          294                       # Occupied blocks per task id
system.cpu.icache.tags.occ_task_id_percent::1024     0.153809                       # Percentage of cache occupancy per task id
system.cpu.icache.tags.tag_accesses           2004079                       # Number of tag accesses
system.cpu.icache.tags.data_accesses          2004079                       # Number of data accesses
system.cpu.dtb.walker.pwrStateResidencyTicks::UNDEFINED  10571796000                       # Cumulative time (in ticks) in various power states
system.cpu.interrupts.clk_domain.clock          16000                       # Clock period in ticks
system.cpu.itb.walker.pwrStateResidencyTicks::UNDEFINED  10571796000                       # Cumulative time (in ticks) in various power states
system.cpu.dcache.pwrStateResidencyTicks::UNDEFINED  10571796000                       # Cumulative time (in ticks) in various power states
system.cpu.dcache.demand_hits::.cpu.data        18366                       # number of demand (read+write) hits
system.cpu.dcache.demand_hits::total            18366                       # number of demand (read+write) hits
system.cpu.dcache.overall_hits::.cpu.data        18366                       # number of overall hits
system.cpu.dcache.overall_hits::total           18366                       # number of overall hits
system.cpu.dcache.demand_misses::.cpu.data       484028                       # number of demand (read+write) misses
system.cpu.dcache.demand_misses::total         484028                       # number of demand (read+write) misses
system.cpu.dcache.overall_misses::.cpu.data       484028                       # number of overall misses
system.cpu.dcache.overall_misses::total        484028                       # number of overall misses
system.cpu.dcache.demand_miss_latency::.cpu.data  42230077000                       # number of demand (read+write) miss cycles
system.cpu.dcache.demand_miss_latency::total  42230077000                       # number of demand (read+write) miss cycles
system.cpu.dcache.overall_miss_latency::.cpu.data  42230077000                       # number of overall miss cycles
system.cpu.dcache.overall_miss_latency::total  42230077000                       # number of overall miss cycles
system.cpu.dcache.demand_accesses::.cpu.data       502394                       # number of demand (read+write) accesses
system.cpu.dcache.demand_accesses::total       502394                       # number of demand (read+write) accesses
system.cpu.dcache.overall_accesses::.cpu.data       502394                       # number of overall (read+write) accesses
system.cpu.dcache.overall_accesses::total       502394                       # number of overall (read+write) accesses
system.cpu.dcache.demand_miss_rate::.cpu.data     0.963443                       # miss rate for demand accesses
system.cpu.dcache.demand_miss_rate::total     0.963443                       # miss rate for demand accesses
system.cpu.dcache.overall_miss_rate::.cpu.data     0.963443                       # miss rate for overall accesses
system.cpu.dcache.overall_miss_rate::total     0.963443                       # miss rate for overall accesses
system.cpu.dcache.demand_avg_miss_latency::.cpu.data 87247.177849                       # average overall miss latency
system.cpu.dcache.demand_avg_miss_latency::total 87247.177849                       # average overall miss latency
system.cpu.dcache.overall_avg_miss_latency::.cpu.data 87247.177849                       # average overall miss latency
system.cpu.dcache.overall_avg_miss_latency::total 87247.177849                       # average overall miss latency
system.cpu.dcache.blocked_cycles::no_mshrs      9594065                       # number of cycles access was blocked
system.cpu.dcache.blocked_cycles::no_targets            0                       # number of cycles access was blocked
system.cpu.dcache.blocked::no_mshrs            483724                       # number of cycles access was blocked
system.cpu.dcache.blocked::no_targets               0                       # number of cycles access was blocked
system.cpu.dcache.avg_blocked_cycles::no_mshrs    19.833759                       # average number of cycles each access was blocked
system.cpu.dcache.avg_blocked_cycles::no_targets          nan                       # average number of cycles each access was blocked
system.cpu.dcache.writebacks::.writebacks          113                       # number of writebacks
system.cpu.dcache.writebacks::total               113                       # number of writebacks
system.cpu.dcache.demand_mshr_hits::.cpu.data          124                       # number of demand (read+write) MSHR hits
system.cpu.dcache.demand_mshr_hits::total          124                       # number of demand (read+write) MSHR hits
system.cpu.dcache.overall_mshr_hits::.cpu.data          124                       # number of overall MSHR hits
system.cpu.dcache.overall_mshr_hits::total          124                       # number of overall MSHR hits
system.cpu.dcache.demand_mshr_misses::.cpu.data       483904                       # number of demand (read+write) MSHR misses
system.cpu.dcache.demand_mshr_misses::total       483904                       # number of demand (read+write) MSHR misses
system.cpu.dcache.overall_mshr_misses::.cpu.data       483904                       # number of overall MSHR misses
system.cpu.dcache.overall_mshr_misses::total       483904                       # number of overall MSHR misses
system.cpu.dcache.demand_mshr_miss_latency::.cpu.data  41257276000                       # number of demand (read+write) MSHR miss cycles
system.cpu.dcache.demand_mshr_miss_latency::total  41257276000                       # number of demand (read+write) MSHR miss cycles
system.cpu.dcache.overall_mshr_miss_latency::.cpu.data  41257276000                       # number of overall MSHR miss cycles
system.cpu.dcache.overall_mshr_miss_latency::total  41257276000                       # number of overall MSHR miss cycles
system.cpu.dcache.demand_mshr_miss_rate::.cpu.data     0.963196                       # mshr miss rate for demand accesses
system.cpu.dcache.demand_mshr_miss_rate::total     0.963196                       # mshr miss rate for demand accesses
system.cpu.dcache.overall_mshr_miss_rate::.cpu.data     0.963196                       # mshr miss rate for overall accesses
system.cpu.dcache.overall_mshr_miss_rate::total     0.963196                       # mshr miss rate for overall accesses
system.cpu.dcache.demand_avg_mshr_miss_latency::.cpu.data 85259.216704                       # average overall mshr miss latency
system.cpu.dcache.demand_avg_mshr_miss_latency::total 85259.216704                       # average overall mshr miss latency
system.cpu.dcache.overall_avg_mshr_miss_latency::.cpu.data 85259.216704                       # average overall mshr miss latency
system.cpu.dcache.overall_avg_mshr_miss_latency::total 85259.216704                       # average overall mshr miss latency
system.cpu.dcache.replacements                 481856                       # number of replacements
system.cpu.dcache.ReadReq_hits::.cpu.data        17441                       # number of ReadReq hits
system.cpu.dcache.ReadReq_hits::total           17441                       # number of ReadReq hits
system.cpu.dcache.ReadReq_misses::.cpu.data       483935                       # number of ReadReq misses
system.cpu.dcache.ReadReq_misses::total        483935                       # number of ReadReq misses
system.cpu.dcache.ReadReq_miss_latency::.cpu.data  42223923000                       # number of ReadReq miss cycles
system.cpu.dcache.ReadReq_miss_latency::total  42223923000                       # number of ReadReq miss cycles
system.cpu.dcache.ReadReq_accesses::.cpu.data       501376                       # number of ReadReq accesses(hits+misses)
system.cpu.dcache.ReadReq_accesses::total       501376                       # number of ReadReq accesses(hits+misses)
system.cpu.dcache.ReadReq_miss_rate::.cpu.data     0.965214                       # miss rate for ReadReq accesses
system.cpu.dcache.ReadReq_miss_rate::total     0.965214                       # miss rate for ReadReq accesses
system.cpu.dcache.ReadReq_avg_miss_latency::.cpu.data 87251.227954                       # average ReadReq miss latency
system.cpu.dcache.ReadReq_avg_miss_latency::total 87251.227954                       # average ReadReq miss latency
system.cpu.dcache.ReadReq_mshr_hits::.cpu.data          123                       # number of ReadReq MSHR hits
system.cpu.dcache.ReadReq_mshr_hits::total          123                       # number of ReadReq MSHR hits
system.cpu.dcache.ReadReq_mshr_misses::.cpu.data       483812                       # number of ReadReq MSHR misses
system.cpu.dcache.ReadReq_mshr_misses::total       483812                       # number of ReadReq MSHR misses
system.cpu.dcache.ReadReq_mshr_miss_latency::.cpu.data  41251363000                       # number of ReadReq MSHR miss cycles
system.cpu.dcache.ReadReq_mshr_miss_latency::total  41251363000                       # number of ReadReq MSHR miss cycles
system.cpu.dcache.ReadReq_mshr_miss_rate::.cpu.data     0.964968                       # mshr miss rate for ReadReq accesses
system.cpu.dcache.ReadReq_mshr_miss_rate::total     0.964968                       # mshr miss rate for ReadReq accesses
system.cpu.dcache.ReadReq_avg_mshr_miss_latency::.cpu.data 85263.207610                       # average ReadReq mshr miss latency
system.cpu.dcache.ReadReq_avg_mshr_miss_latency::total 85263.207610                       # average ReadReq mshr miss latency
system.cpu.dcache.WriteReq_hits::.cpu.data          925                       # number of WriteReq hits
system.cpu.dcache.WriteReq_hits::total            925                       # number of WriteReq hits
system.cpu.dcache.WriteReq_misses::.cpu.data           93                       # number of WriteReq misses
system.cpu.dcache.WriteReq_misses::total           93                       # number of WriteReq misses
system.cpu.dcache.WriteReq_miss_latency::.cpu.data      6154000                       # number of WriteReq miss cycles
system.cpu.dcache.WriteReq_miss_latency::total      6154000                       # number of WriteReq miss cycles
system.cpu.dcache.WriteReq_accesses::.cpu.data         1018                       # number of WriteReq accesses(hits+misses)
system.cpu.dcache.WriteReq_accesses::total         1018                       # number of WriteReq accesses(hits+misses)
system.cpu.dcache.WriteReq_miss_rate::.cpu.data     0.091356                       # miss rate for WriteReq accesses
system.cpu.dcache.WriteReq_miss_rate::total     0.091356                       # miss rate for WriteReq accesses
system.cpu.dcache.WriteReq_avg_miss_latency::.cpu.data 66172.043011                       # average WriteReq miss latency
system.cpu.dcache.WriteReq_avg_miss_latency::total 66172.043011                       # average WriteReq miss latency
system.cpu.dcache.WriteReq_mshr_hits::.cpu.data            1                       # number of WriteReq MSHR hits
system.cpu.dcache.WriteReq_mshr_hits::total            1                       # number of WriteReq MSHR hits
system.cpu.dcache.WriteReq_mshr_misses::.cpu.data           92                       # number of WriteReq MSHR misses
system.cpu.dcache.WriteReq_mshr_misses::total           92                       # number of WriteReq MSHR misses
system.cpu.dcache.WriteReq_mshr_miss_latency::.cpu.data      5913000                       # number of WriteReq MSHR miss cycles
system.cpu.dcache.WriteReq_mshr_miss_latency::total      5913000                       # number of WriteReq MSHR miss cycles
system.cpu.dcache.WriteReq_mshr_miss_rate::.cpu.data     0.090373                       # mshr miss rate for WriteReq accesses
system.cpu.dcache.WriteReq_mshr_miss_rate::total     0.090373                       # mshr miss rate for WriteReq accesses
system.cpu.dcache.WriteReq_avg_mshr_miss_latency::.cpu.data 64271.739130                       # average WriteReq mshr miss latency
system.cpu.dcache.WriteReq_avg_mshr_miss_latency::total 64271.739130                       # average WriteReq mshr miss latency
system.cpu.dcache.tags.pwrStateResidencyTicks::UNDEFINED  10571796000                       # Cumulative time (in ticks) in various power states
system.cpu.dcache.tags.tagsinuse          2038.602545                       # Cycle average of tags in use
system.cpu.dcache.tags.total_refs              502270                       # Total number of references to valid blocks.
system.cpu.dcache.tags.sampled_refs            483904                       # Sample count of references to valid blocks.
system.cpu.dcache.tags.avg_refs              1.037954                       # Average number of references to valid blocks.
system.cpu.dcache.tags.warmup_cycle            217000                       # Cycle when the warmup percentage was hit.
system.cpu.dcache.tags.occ_blocks::.cpu.data  2038.602545                       # Average occupied blocks per requestor
system.cpu.dcache.tags.occ_percent::.cpu.data     0.995411                       # Average percentage of cache occupancy
system.cpu.dcache.tags.occ_percent::total     0.995411                       # Average percentage of cache occupancy
system.cpu.dcache.tags.occ_task_id_blocks::1024         2048                       # Occupied blocks per task id
system.cpu.dcache.tags.age_task_id_blocks_1024::0          419                       # Occupied blocks per task id
system.cpu.dcache.tags.age_task_id_blocks_1024::1         1553                       # Occupied blocks per task id
system.cpu.dcache.tags.age_task_id_blocks_1024::2           76                       # Occupied blocks per task id
system.cpu.dcache.tags.occ_task_id_percent::1024            1                       # Percentage of cache occupancy per task id
system.cpu.dcache.tags.tag_accesses           1488692                       # Number of tag accesses
system.cpu.dcache.tags.data_accesses          1488692                       # Number of data accesses

---------- End Simulation Statistics   ----------
