
---------- Begin Simulation Statistics ----------
final_tick                                15709669000                       # Number of ticks from beginning of simulation (restored from checkpoints and never reset)
host_inst_rate                                 135570                       # Simulator instruction rate (inst/s)
host_mem_usage                                 798924                       # Number of bytes of host memory used
host_op_rate                                   269980                       # Simulator op (including micro ops) rate (op/s)
host_seconds                                    82.49                       # Real time elapsed on the host
host_tick_rate                              190447765                       # Simulator tick rate (ticks/s)
sim_freq                                 1000000000000                       # Frequency of simulated ticks
sim_insts                                    11182921                       # Number of instructions simulated
sim_ops                                      22270118                       # Number of ops (including micro ops) simulated
sim_seconds                                  0.015710                       # Number of seconds simulated
sim_ticks                                 15709669000                       # Number of ticks simulated
system.cpu.branchPred.BTBCorrect                    0                       # Number of correct BTB predictions (this stat may not work properly.
system.cpu.branchPred.BTBHitPct              0.000000                       # BTB Hit Percentage
system.cpu.branchPred.BTBHits                       0                       # Number of BTB hits
system.cpu.branchPred.BTBLookups              1628832                       # Number of BTB lookups
system.cpu.branchPred.RASInCorrect                  1                       # Number of incorrect RAS predictions.
system.cpu.branchPred.condIncorrect             25374                       # Number of conditional branches incorrect
system.cpu.branchPred.condPredicted           1653408                       # Number of conditional branches predicted
system.cpu.branchPred.indirectHits            1625898                       # Number of indirect target hits.
system.cpu.branchPred.indirectLookups         1628832                       # Number of indirect predictor lookups.
system.cpu.branchPred.indirectMisses             2934                       # Number of indirect misses.
system.cpu.branchPred.lookups                 1654890                       # Number of BP lookups
system.cpu.branchPred.usedRAS                     653                       # Number of times the RAS was used to get a target.
system.cpu.branchPredindirectMispredicted          537                       # Number of mispredicted indirect branches.
system.cpu.cc_regfile_reads                   8034288                       # number of cc regfile reads
system.cpu.cc_regfile_writes                  6533886                       # number of cc regfile writes
system.cpu.commit.amos                              0                       # Number of atomic instructions committed
system.cpu.commit.branchMispredicts             25374                       # The number of times a branch was mispredicted
system.cpu.commit.branches                    1598763                       # Number of branches committed
system.cpu.commit.bw_lim_events               2182032                       # number cycles where commit BW limit reached
system.cpu.commit.commitNonSpecStalls               8                       # The number of times commit has been forced to stall to communicate backwards
system.cpu.commit.commitSquashedInsts          324612                       # The number of squashed insts skipped by commit
system.cpu.commit.committedInsts             11182921                       # Number of instructions committed
system.cpu.commit.committedOps               22270118                       # Number of ops (including micro ops) committed
system.cpu.commit.committed_per_cycle::samples     15648826                       # Number of insts commited each cycle
system.cpu.commit.committed_per_cycle::mean     1.423117                       # Number of insts commited each cycle
system.cpu.commit.committed_per_cycle::stdev     2.827104                       # Number of insts commited each cycle
system.cpu.commit.committed_per_cycle::underflows            0      0.00%      0.00% # Number of insts commited each cycle
system.cpu.commit.committed_per_cycle::0     11356265     72.57%     72.57% # Number of insts commited each cycle
system.cpu.commit.committed_per_cycle::1      1234407      7.89%     80.46% # Number of insts commited each cycle
system.cpu.commit.committed_per_cycle::2       132498      0.85%     81.30% # Number of insts commited each cycle
system.cpu.commit.committed_per_cycle::3        90234      0.58%     81.88% # Number of insts commited each cycle
system.cpu.commit.committed_per_cycle::4       315336      2.02%     83.90% # Number of insts commited each cycle
system.cpu.commit.committed_per_cycle::5       260731      1.67%     85.56% # Number of insts commited each cycle
system.cpu.commit.committed_per_cycle::6        62503      0.40%     85.96% # Number of insts commited each cycle
system.cpu.commit.committed_per_cycle::7        14820      0.09%     86.06% # Number of insts commited each cycle
system.cpu.commit.committed_per_cycle::8      2182032     13.94%    100.00% # Number of insts commited each cycle
system.cpu.commit.committed_per_cycle::overflows            0      0.00%    100.00% # Number of insts commited each cycle
system.cpu.commit.committed_per_cycle::min_value            0                       # Number of insts commited each cycle
system.cpu.commit.committed_per_cycle::max_value            8                       # Number of insts commited each cycle
system.cpu.commit.committed_per_cycle::total     15648826                       # Number of insts commited each cycle
system.cpu.commit.fp_insts                    9411436                       # Number of committed floating point instructions.
system.cpu.commit.function_calls                   87                       # Number of function calls committed.
system.cpu.commit.int_insts                  16004073                       # Number of committed integer instructions.
system.cpu.commit.loads                       4718618                       # Number of loads committed
system.cpu.commit.membars                           0                       # Number of memory barriers committed
system.cpu.commit.op_class_0::No_OpClass           43      0.00%      0.00% # Class of committed instruction
system.cpu.commit.op_class_0::IntAlu         11308977     50.78%     50.78% # Class of committed instruction
system.cpu.commit.op_class_0::IntMult               5      0.00%     50.78% # Class of committed instruction
system.cpu.commit.op_class_0::IntDiv               21      0.00%     50.78% # Class of committed instruction
system.cpu.commit.op_class_0::FloatAdd        3096086     13.90%     64.68% # Class of committed instruction
system.cpu.commit.op_class_0::FloatCmp              0      0.00%     64.68% # Class of committed instruction
system.cpu.commit.op_class_0::FloatCvt              0      0.00%     64.68% # Class of committed instruction
system.cpu.commit.op_class_0::FloatMult             0      0.00%     64.68% # Class of committed instruction
system.cpu.commit.op_class_0::FloatMultAcc            0      0.00%     64.68% # Class of committed instruction
system.cpu.commit.op_class_0::FloatDiv              0      0.00%     64.68% # Class of committed instruction
system.cpu.commit.op_class_0::FloatMisc             0      0.00%     64.68% # Class of committed instruction
system.cpu.commit.op_class_0::FloatSqrt             0      0.00%     64.68% # Class of committed instruction
system.cpu.commit.op_class_0::SimdAdd               0      0.00%     64.68% # Class of committed instruction
system.cpu.commit.op_class_0::SimdAddAcc            0      0.00%     64.68% # Class of committed instruction
system.cpu.commit.op_class_0::SimdAlu              44      0.00%     64.68% # Class of committed instruction
system.cpu.commit.op_class_0::SimdCmp               0      0.00%     64.68% # Class of committed instruction
system.cpu.commit.op_class_0::SimdCvt              30      0.00%     64.68% # Class of committed instruction
system.cpu.commit.op_class_0::SimdMisc             44      0.00%     64.68% # Class of committed instruction
system.cpu.commit.op_class_0::SimdMult              0      0.00%     64.68% # Class of committed instruction
system.cpu.commit.op_class_0::SimdMultAcc            0      0.00%     64.68% # Class of committed instruction
system.cpu.commit.op_class_0::SimdShift             0      0.00%     64.68% # Class of committed instruction
system.cpu.commit.op_class_0::SimdShiftAcc            0      0.00%     64.68% # Class of committed instruction
system.cpu.commit.op_class_0::SimdDiv               0      0.00%     64.68% # Class of committed instruction
system.cpu.commit.op_class_0::SimdSqrt              0      0.00%     64.68% # Class of committed instruction
system.cpu.commit.op_class_0::SimdFloatAdd      1572618      7.06%     71.75% # Class of committed instruction
system.cpu.commit.op_class_0::SimdFloatAlu            0      0.00%     71.75% # Class of committed instruction
system.cpu.commit.op_class_0::SimdFloatCmp            0      0.00%     71.75% # Class of committed instruction
system.cpu.commit.op_class_0::SimdFloatCvt            0      0.00%     71.75% # Class of committed instruction
system.cpu.commit.op_class_0::SimdFloatDiv            0      0.00%     71.75% # Class of committed instruction
system.cpu.commit.op_class_0::SimdFloatMisc            0      0.00%     71.75% # Class of committed instruction
system.cpu.commit.op_class_0::SimdFloatMult      1548042      6.95%     78.70% # Class of committed instruction
system.cpu.commit.op_class_0::SimdFloatMultAcc            0      0.00%     78.70% # Class of committed instruction
system.cpu.commit.op_class_0::SimdFloatSqrt            0      0.00%     78.70% # Class of committed instruction
system.cpu.commit.op_class_0::SimdReduceAdd            0      0.00%     78.70% # Class of committed instruction
system.cpu.commit.op_class_0::SimdReduceAlu            0      0.00%     78.70% # Class of committed instruction
system.cpu.commit.op_class_0::SimdReduceCmp            0      0.00%     78.70% # Class of committed instruction
system.cpu.commit.op_class_0::SimdFloatReduceAdd            0      0.00%     78.70% # Class of committed instruction
system.cpu.commit.op_class_0::SimdFloatReduceCmp            0      0.00%     78.70% # Class of committed instruction
system.cpu.commit.op_class_0::SimdAes               0      0.00%     78.70% # Class of committed instruction
system.cpu.commit.op_class_0::SimdAesMix            0      0.00%     78.70% # Class of committed instruction
system.cpu.commit.op_class_0::SimdSha1Hash            0      0.00%     78.70% # Class of committed instruction
system.cpu.commit.op_class_0::SimdSha1Hash2            0      0.00%     78.70% # Class of committed instruction
system.cpu.commit.op_class_0::SimdSha256Hash            0      0.00%     78.70% # Class of committed instruction
system.cpu.commit.op_class_0::SimdSha256Hash2            0      0.00%     78.70% # Class of committed instruction
system.cpu.commit.op_class_0::SimdShaSigma2            0      0.00%     78.70% # Class of committed instruction
system.cpu.commit.op_class_0::SimdShaSigma3            0      0.00%     78.70% # Class of committed instruction
system.cpu.commit.op_class_0::SimdPredAlu            0      0.00%     78.70% # Class of committed instruction
system.cpu.commit.op_class_0::MemRead         1597932      7.18%     85.87% # Class of committed instruction
system.cpu.commit.op_class_0::MemWrite            862      0.00%     85.88% # Class of committed instruction
system.cpu.commit.op_class_0::FloatMemRead      3120686     14.01%     99.89% # Class of committed instruction
system.cpu.commit.op_class_0::FloatMemWrite        24728      0.11%    100.00% # Class of committed instruction
system.cpu.commit.op_class_0::IprAccess             0      0.00%    100.00% # Class of committed instruction
system.cpu.commit.op_class_0::InstPrefetch            0      0.00%    100.00% # Class of committed instruction
system.cpu.commit.op_class_0::total          22270118                       # Class of committed instruction
system.cpu.commit.refs                        4744208                       # Number of memory references committed
system.cpu.commit.swp_count                         0                       # Number of s/w prefetches committed
system.cpu.commit.vec_insts                         0                       # Number of committed Vector instructions.
system.cpu.committedInsts                    11182921                       # Number of Instructions Simulated
system.cpu.committedOps                      22270118                       # Number of Ops (including micro ops) Simulated
system.cpu.cpi                               1.404791                       # CPI: Cycles Per Instruction
system.cpu.cpi_total                         1.404791                       # CPI: Total CPI of All Threads
system.cpu.decode.BlockedCycles              10290273                       # Number of cycles decode is blocked
system.cpu.decode.DecodedInsts               22834411                       # Number of instructions handled by decode
system.cpu.decode.IdleCycles                  2238962                       # Number of cycles decode is idle
system.cpu.decode.RunCycles                   2096088                       # Number of cycles decode is running
system.cpu.decode.SquashCycles                  25381                       # Number of cycles decode is squashing
system.cpu.decode.UnblockCycles               1046389                       # Number of cycles decode is unblocking
system.cpu.dtb.rdAccesses                     4859996                       # TLB accesses on read requests
system.cpu.dtb.rdMisses                        124705                       # TLB misses on read requests
system.cpu.dtb.wrAccesses                       26188                       # TLB accesses on write requests
system.cpu.dtb.wrMisses                            18                       # TLB misses on write requests
system.cpu.fetch.Branches                     1654890                       # Number of branches that fetch encountered
system.cpu.fetch.CacheLines                   3280838                       # Number of cache lines fetched
system.cpu.fetch.Cycles                      12366001                       # Number of cycles fetch has run and was not squashing or blocked
system.cpu.fetch.IcacheSquashes                  4817                       # Number of outstanding Icache misses that were squashed
system.cpu.fetch.Insts                       11643602                       # Number of instructions fetch has processed
system.cpu.fetch.MiscStallCycles                    4                       # Number of cycles fetch has spent waiting on interrupts, or bad addresses, or out of MSHRs
system.cpu.fetch.PendingQuiesceStallCycles           34                       # Number of stall cycles due to pending quiesce instructions
system.cpu.fetch.PendingTrapStallCycles             3                       # Number of stall cycles due to pending traps
system.cpu.fetch.SquashCycles                   50762                       # Number of cycles fetch has spent squashing
system.cpu.fetch.branchRate                  0.105342                       # Number of branch fetches per cycle
system.cpu.fetch.icacheStallCycles            3305670                       # Number of cycles fetch is stalled on an Icache miss
system.cpu.fetch.predictedBranches            1626551                       # Number of branches that fetch has predicted taken
system.cpu.fetch.rate                        0.741174                       # Number of inst fetches per cycle
system.cpu.fetch.rateDist::samples           15697093                       # Number of instructions fetched each cycle (Total)
system.cpu.fetch.rateDist::mean              1.477276                       # Number of instructions fetched each cycle (Total)
system.cpu.fetch.rateDist::stdev             2.832031                       # Number of instructions fetched each cycle (Total)
system.cpu.fetch.rateDist::underflows               0      0.00%      0.00% # Number of instructions fetched each cycle (Total)
system.cpu.fetch.rateDist::0                 12095758     77.06%     77.06% # Number of instructions fetched each cycle (Total)
system.cpu.fetch.rateDist::1                      398      0.00%     77.06% # Number of instructions fetched each cycle (Total)
system.cpu.fetch.rateDist::2                   263526      1.68%     78.74% # Number of instructions fetched each cycle (Total)
system.cpu.fetch.rateDist::3                      337      0.00%     78.74% # Number of instructions fetched each cycle (Total)
system.cpu.fetch.rateDist::4                   253330      1.61%     80.35% # Number of instructions fetched each cycle (Total)
system.cpu.fetch.rateDist::5                      779      0.00%     80.36% # Number of instructions fetched each cycle (Total)
system.cpu.fetch.rateDist::6                  1510101      9.62%     89.98% # Number of instructions fetched each cycle (Total)
system.cpu.fetch.rateDist::7                      251      0.00%     89.98% # Number of instructions fetched each cycle (Total)
system.cpu.fetch.rateDist::8                  1572613     10.02%    100.00% # Number of instructions fetched each cycle (Total)
system.cpu.fetch.rateDist::overflows                0      0.00%    100.00% # Number of instructions fetched each cycle (Total)
system.cpu.fetch.rateDist::min_value                0                       # Number of instructions fetched each cycle (Total)
system.cpu.fetch.rateDist::max_value                8                       # Number of instructions fetched each cycle (Total)
system.cpu.fetch.rateDist::total             15697093                       # Number of instructions fetched each cycle (Total)
system.cpu.fp_regfile_reads                   9486701                       # number of floating regfile reads
system.cpu.fp_regfile_writes                  9418462                       # number of floating regfile writes
system.cpu.idleCycles                           12577                       # Total number of cycles that the CPU has spent unscheduled due to idling
system.cpu.iew.branchMispredicts                25569                       # Number of branch mispredicts detected at execute
system.cpu.iew.exec_branches                  1602685                       # Number of branches executed
system.cpu.iew.exec_nop                             0                       # number of nop insts executed
system.cpu.iew.exec_rate                     1.755722                       # Inst execution rate
system.cpu.iew.exec_refs                      9952826                       # number of memory reference insts executed
system.cpu.iew.exec_stores                      26187                       # Number of stores executed
system.cpu.iew.exec_swp                             0                       # number of swp insts executed
system.cpu.iew.iewBlockCycles                 3415244                       # Number of cycles IEW is blocking
system.cpu.iew.iewDispLoadInsts               4792836                       # Number of dispatched load instructions
system.cpu.iew.iewDispNonSpecInsts                 35                       # Number of dispatched non-speculative instructions
system.cpu.iew.iewDispSquashedInsts             48246                       # Number of squashed instructions skipped by dispatch
system.cpu.iew.iewDispStoreInsts                26936                       # Number of dispatched store instructions
system.cpu.iew.iewDispatchedInsts            22594176                       # Number of instructions dispatched to IQ
system.cpu.iew.iewExecLoadInsts               9926639                       # Number of load instructions executed
system.cpu.iew.iewExecSquashedInsts             71696                       # Number of squashed instructions skipped in execute
system.cpu.iew.iewExecutedInsts              27581812                       # Number of executed instructions
system.cpu.iew.iewIQFullEvents                  96433                       # Number of times the IQ has become full, causing a stall
system.cpu.iew.iewIdleCycles                        0                       # Number of cycles IEW is idle
system.cpu.iew.iewLSQFullEvents                844882                       # Number of times the LSQ has become full, causing a stall
system.cpu.iew.iewSquashCycles                  25381                       # Number of cycles IEW is squashing
system.cpu.iew.iewUnblockCycles               1026422                       # Number of cycles IEW is unblocking
system.cpu.iew.lsq.thread0.blockedLoads             0                       # Number of blocked loads due to partial load-store forwarding
system.cpu.iew.lsq.thread0.cacheBlocked        719140                       # Number of times an access to memory failed due to the cache being blocked
system.cpu.iew.lsq.thread0.forwLoads               58                       # Number of loads that had data forwarded from stores
system.cpu.iew.lsq.thread0.ignoredResponses            2                       # Number of memory responses ignored because the instruction is squashed
system.cpu.iew.lsq.thread0.invAddrLoads             0                       # Number of loads ignored due to an invalid address
system.cpu.iew.lsq.thread0.invAddrSwpfs             0                       # Number of software prefetches ignored due to an invalid address
system.cpu.iew.lsq.thread0.memOrderViolation           12                       # Number of memory ordering violations
system.cpu.iew.lsq.thread0.rescheduledLoads            2                       # Number of loads that were rescheduled
system.cpu.iew.lsq.thread0.squashedLoads        74218                       # Number of loads squashed
system.cpu.iew.lsq.thread0.squashedStores         1346                       # Number of stores squashed
system.cpu.iew.memOrderViolationEvents             12                       # Number of memory order violations
system.cpu.iew.predictedNotTakenIncorrect         1585                       # Number of branches that were predicted not taken incorrectly
system.cpu.iew.predictedTakenIncorrect          23984                       # Number of branches that were predicted taken incorrectly
system.cpu.iew.wb_consumers                  22583195                       # num instructions consuming a value
system.cpu.iew.wb_count                      22375446                       # cumulative count of insts written-back
system.cpu.iew.wb_fanout                     0.744681                       # average fanout of values written-back
system.cpu.iew.wb_producers                  16817285                       # num instructions producing a value
system.cpu.iew.wb_rate                       1.424310                       # insts written-back per cycle
system.cpu.iew.wb_sent                       22377166                       # cumulative count of insts sent to commit
system.cpu.int_regfile_reads                 31299152                       # number of integer regfile reads
system.cpu.int_regfile_writes                11329606                       # number of integer regfile writes
system.cpu.ipc                               0.711850                       # IPC: Instructions Per Cycle
system.cpu.ipc_total                         0.711850                       # IPC: Total IPC of All Threads
system.cpu.iq.FU_type_0::No_OpClass               289      0.00%      0.00% # Type of FU issued
system.cpu.iq.FU_type_0::IntAlu              11407930     41.25%     41.25% # Type of FU issued
system.cpu.iq.FU_type_0::IntMult                    5      0.00%     41.25% # Type of FU issued
system.cpu.iq.FU_type_0::IntDiv                    22      0.00%     41.25% # Type of FU issued
system.cpu.iq.FU_type_0::FloatAdd             3157542     11.42%     52.67% # Type of FU issued
system.cpu.iq.FU_type_0::FloatCmp                   0      0.00%     52.67% # Type of FU issued
system.cpu.iq.FU_type_0::FloatCvt                   0      0.00%     52.67% # Type of FU issued
system.cpu.iq.FU_type_0::FloatMult                  0      0.00%     52.67% # Type of FU issued
system.cpu.iq.FU_type_0::FloatMultAcc               0      0.00%     52.67% # Type of FU issued
system.cpu.iq.FU_type_0::FloatDiv                   0      0.00%     52.67% # Type of FU issued
system.cpu.iq.FU_type_0::FloatMisc                  0      0.00%     52.67% # Type of FU issued
system.cpu.iq.FU_type_0::FloatSqrt                  0      0.00%     52.67% # Type of FU issued
system.cpu.iq.FU_type_0::SimdAdd                    0      0.00%     52.67% # Type of FU issued
system.cpu.iq.FU_type_0::SimdAddAcc                 0      0.00%     52.67% # Type of FU issued
system.cpu.iq.FU_type_0::SimdAlu                   77      0.00%     52.67% # Type of FU issued
system.cpu.iq.FU_type_0::SimdCmp                    0      0.00%     52.67% # Type of FU issued
system.cpu.iq.FU_type_0::SimdCvt                   51      0.00%     52.67% # Type of FU issued
system.cpu.iq.FU_type_0::SimdMisc                  64      0.00%     52.67% # Type of FU issued
system.cpu.iq.FU_type_0::SimdMult                   0      0.00%     52.67% # Type of FU issued
system.cpu.iq.FU_type_0::SimdMultAcc                0      0.00%     52.67% # Type of FU issued
system.cpu.iq.FU_type_0::SimdShift                  0      0.00%     52.67% # Type of FU issued
system.cpu.iq.FU_type_0::SimdShiftAcc               0      0.00%     52.67% # Type of FU issued
system.cpu.iq.FU_type_0::SimdDiv                    0      0.00%     52.67% # Type of FU issued
system.cpu.iq.FU_type_0::SimdSqrt                   0      0.00%     52.67% # Type of FU issued
system.cpu.iq.FU_type_0::SimdFloatAdd         1572619      5.69%     58.36% # Type of FU issued
system.cpu.iq.FU_type_0::SimdFloatAlu               0      0.00%     58.36% # Type of FU issued
system.cpu.iq.FU_type_0::SimdFloatCmp               0      0.00%     58.36% # Type of FU issued
system.cpu.iq.FU_type_0::SimdFloatCvt               0      0.00%     58.36% # Type of FU issued
system.cpu.iq.FU_type_0::SimdFloatDiv               0      0.00%     58.36% # Type of FU issued
system.cpu.iq.FU_type_0::SimdFloatMisc              0      0.00%     58.36% # Type of FU issued
system.cpu.iq.FU_type_0::SimdFloatMult        1548042      5.60%     63.96% # Type of FU issued
system.cpu.iq.FU_type_0::SimdFloatMultAcc            0      0.00%     63.96% # Type of FU issued
system.cpu.iq.FU_type_0::SimdFloatSqrt              0      0.00%     63.96% # Type of FU issued
system.cpu.iq.FU_type_0::SimdReduceAdd              0      0.00%     63.96% # Type of FU issued
system.cpu.iq.FU_type_0::SimdReduceAlu              0      0.00%     63.96% # Type of FU issued
system.cpu.iq.FU_type_0::SimdReduceCmp              0      0.00%     63.96% # Type of FU issued
system.cpu.iq.FU_type_0::SimdFloatReduceAdd            0      0.00%     63.96% # Type of FU issued
system.cpu.iq.FU_type_0::SimdFloatReduceCmp            0      0.00%     63.96% # Type of FU issued
system.cpu.iq.FU_type_0::SimdAes                    0      0.00%     63.96% # Type of FU issued
system.cpu.iq.FU_type_0::SimdAesMix                 0      0.00%     63.96% # Type of FU issued
system.cpu.iq.FU_type_0::SimdSha1Hash               0      0.00%     63.96% # Type of FU issued
system.cpu.iq.FU_type_0::SimdSha1Hash2              0      0.00%     63.96% # Type of FU issued
system.cpu.iq.FU_type_0::SimdSha256Hash             0      0.00%     63.96% # Type of FU issued
system.cpu.iq.FU_type_0::SimdSha256Hash2            0      0.00%     63.96% # Type of FU issued
system.cpu.iq.FU_type_0::SimdShaSigma2              0      0.00%     63.96% # Type of FU issued
system.cpu.iq.FU_type_0::SimdShaSigma3              0      0.00%     63.96% # Type of FU issued
system.cpu.iq.FU_type_0::SimdPredAlu                0      0.00%     63.96% # Type of FU issued
system.cpu.iq.FU_type_0::MemRead              3460705     12.51%     76.47% # Type of FU issued
system.cpu.iq.FU_type_0::MemWrite                1591      0.01%     76.48% # Type of FU issued
system.cpu.iq.FU_type_0::FloatMemRead         6479841     23.43%     99.91% # Type of FU issued
system.cpu.iq.FU_type_0::FloatMemWrite          24730      0.09%    100.00% # Type of FU issued
system.cpu.iq.FU_type_0::IprAccess                  0      0.00%    100.00% # Type of FU issued
system.cpu.iq.FU_type_0::InstPrefetch               0      0.00%    100.00% # Type of FU issued
system.cpu.iq.FU_type_0::total               27653508                       # Type of FU issued
system.cpu.iq.fp_alu_accesses                13910666                       # Number of floating point alu accesses
system.cpu.iq.fp_inst_queue_reads            26755981                       # Number of floating instruction queue reads
system.cpu.iq.fp_inst_queue_wakeup_accesses      9442251                       # Number of floating instruction queue wakeup accesses
system.cpu.iq.fp_inst_queue_writes            9668364                       # Number of floating instruction queue writes
system.cpu.iq.fu_busy_cnt                     1946371                       # FU busy when requested
system.cpu.iq.fu_busy_rate                   0.070384                       # FU busy rate (busy events/executed inst)
system.cpu.iq.fu_full::No_OpClass                   0      0.00%      0.00% # attempts to use FU when none available
system.cpu.iq.fu_full::IntAlu                   95404      4.90%      4.90% # attempts to use FU when none available
system.cpu.iq.fu_full::IntMult                      0      0.00%      4.90% # attempts to use FU when none available
system.cpu.iq.fu_full::IntDiv                       0      0.00%      4.90% # attempts to use FU when none available
system.cpu.iq.fu_full::FloatAdd                     0      0.00%      4.90% # attempts to use FU when none available
system.cpu.iq.fu_full::FloatCmp                     0      0.00%      4.90% # attempts to use FU when none available
system.cpu.iq.fu_full::FloatCvt                     0      0.00%      4.90% # attempts to use FU when none available
system.cpu.iq.fu_full::FloatMult                    0      0.00%      4.90% # attempts to use FU when none available
system.cpu.iq.fu_full::FloatMultAcc                 0      0.00%      4.90% # attempts to use FU when none available
system.cpu.iq.fu_full::FloatDiv                     0      0.00%      4.90% # attempts to use FU when none available
system.cpu.iq.fu_full::FloatMisc                    0      0.00%      4.90% # attempts to use FU when none available
system.cpu.iq.fu_full::FloatSqrt                    0      0.00%      4.90% # attempts to use FU when none available
system.cpu.iq.fu_full::SimdAdd                      0      0.00%      4.90% # attempts to use FU when none available
system.cpu.iq.fu_full::SimdAddAcc                   0      0.00%      4.90% # attempts to use FU when none available
system.cpu.iq.fu_full::SimdAlu                      7      0.00%      4.90% # attempts to use FU when none available
system.cpu.iq.fu_full::SimdCmp                      0      0.00%      4.90% # attempts to use FU when none available
system.cpu.iq.fu_full::SimdCvt                      0      0.00%      4.90% # attempts to use FU when none available
system.cpu.iq.fu_full::SimdMisc                     0      0.00%      4.90% # attempts to use FU when none available
system.cpu.iq.fu_full::SimdMult                     0      0.00%      4.90% # attempts to use FU when none available
system.cpu.iq.fu_full::SimdMultAcc                  0      0.00%      4.90% # attempts to use FU when none available
system.cpu.iq.fu_full::SimdShift                    0      0.00%      4.90% # attempts to use FU when none available
system.cpu.iq.fu_full::SimdShiftAcc                 0      0.00%      4.90% # attempts to use FU when none available
system.cpu.iq.fu_full::SimdDiv                      0      0.00%      4.90% # attempts to use FU when none available
system.cpu.iq.fu_full::SimdSqrt                     0      0.00%      4.90% # attempts to use FU when none available
system.cpu.iq.fu_full::SimdFloatAdd                 0      0.00%      4.90% # attempts to use FU when none available
system.cpu.iq.fu_full::SimdFloatAlu                 0      0.00%      4.90% # attempts to use FU when none available
system.cpu.iq.fu_full::SimdFloatCmp                 0      0.00%      4.90% # attempts to use FU when none available
system.cpu.iq.fu_full::SimdFloatCvt                 0      0.00%      4.90% # attempts to use FU when none available
system.cpu.iq.fu_full::SimdFloatDiv                 0      0.00%      4.90% # attempts to use FU when none available
system.cpu.iq.fu_full::SimdFloatMisc                0      0.00%      4.90% # attempts to use FU when none available
system.cpu.iq.fu_full::SimdFloatMult             9218      0.47%      5.38% # attempts to use FU when none available
system.cpu.iq.fu_full::SimdFloatMultAcc             0      0.00%      5.38% # attempts to use FU when none available
system.cpu.iq.fu_full::SimdFloatSqrt                0      0.00%      5.38% # attempts to use FU when none available
system.cpu.iq.fu_full::SimdReduceAdd                0      0.00%      5.38% # attempts to use FU when none available
system.cpu.iq.fu_full::SimdReduceAlu                0      0.00%      5.38% # attempts to use FU when none available
system.cpu.iq.fu_full::SimdReduceCmp                0      0.00%      5.38% # attempts to use FU when none available
system.cpu.iq.fu_full::SimdFloatReduceAdd            0      0.00%      5.38% # attempts to use FU when none available
system.cpu.iq.fu_full::SimdFloatReduceCmp            0      0.00%      5.38% # attempts to use FU when none available
system.cpu.iq.fu_full::SimdAes                      0      0.00%      5.38% # attempts to use FU when none available
system.cpu.iq.fu_full::SimdAesMix                   0      0.00%      5.38% # attempts to use FU when none available
system.cpu.iq.fu_full::SimdSha1Hash                 0      0.00%      5.38% # attempts to use FU when none available
system.cpu.iq.fu_full::SimdSha1Hash2                0      0.00%      5.38% # attempts to use FU when none available
system.cpu.iq.fu_full::SimdSha256Hash               0      0.00%      5.38% # attempts to use FU when none available
system.cpu.iq.fu_full::SimdSha256Hash2              0      0.00%      5.38% # attempts to use FU when none available
system.cpu.iq.fu_full::SimdShaSigma2                0      0.00%      5.38% # attempts to use FU when none available
system.cpu.iq.fu_full::SimdShaSigma3                0      0.00%      5.38% # attempts to use FU when none available
system.cpu.iq.fu_full::SimdPredAlu                  0      0.00%      5.38% # attempts to use FU when none available
system.cpu.iq.fu_full::MemRead                 773107     39.72%     45.10% # attempts to use FU when none available
system.cpu.iq.fu_full::MemWrite                     0      0.00%     45.10% # attempts to use FU when none available
system.cpu.iq.fu_full::FloatMemRead           1068631     54.90%    100.00% # attempts to use FU when none available
system.cpu.iq.fu_full::FloatMemWrite                4      0.00%    100.00% # attempts to use FU when none available
system.cpu.iq.fu_full::IprAccess                    0      0.00%    100.00% # attempts to use FU when none available
system.cpu.iq.fu_full::InstPrefetch                 0      0.00%    100.00% # attempts to use FU when none available
system.cpu.iq.int_alu_accesses               15688924                       # Number of integer alu accesses
system.cpu.iq.int_inst_queue_reads           46220496                       # Number of integer instruction queue reads
system.cpu.iq.int_inst_queue_wakeup_accesses     12933195                       # Number of integer instruction queue wakeup accesses
system.cpu.iq.int_inst_queue_writes          13249881                       # Number of integer instruction queue writes
system.cpu.iq.iqInstsAdded                   22594102                       # Number of instructions added to the IQ (excludes non-spec)
system.cpu.iq.iqInstsIssued                  27653508                       # Number of instructions issued
system.cpu.iq.iqNonSpecInstsAdded                  74                       # Number of non-speculative instructions added to the IQ
system.cpu.iq.iqSquashedInstsExamined          324057                       # Number of squashed instructions iterated over during squash; mainly for profiling
system.cpu.iq.iqSquashedInstsIssued             25997                       # Number of squashed instructions issued
system.cpu.iq.iqSquashedNonSpecRemoved             66                       # Number of squashed non-spec instructions that were removed
system.cpu.iq.iqSquashedOperandsExamined       440593                       # Number of squashed operands that are examined and possibly removed from graph
system.cpu.iq.issued_per_cycle::samples      15697093                       # Number of insts issued each cycle
system.cpu.iq.issued_per_cycle::mean         1.761696                       # Number of insts issued each cycle
system.cpu.iq.issued_per_cycle::stdev        2.143495                       # Number of insts issued each cycle
system.cpu.iq.issued_per_cycle::underflows            0      0.00%      0.00% # Number of insts issued each cycle
system.cpu.iq.issued_per_cycle::0             6622642     42.19%     42.19% # Number of insts issued each cycle
system.cpu.iq.issued_per_cycle::1             3056653     19.47%     61.66% # Number of insts issued each cycle
system.cpu.iq.issued_per_cycle::2             1545828      9.85%     71.51% # Number of insts issued each cycle
system.cpu.iq.issued_per_cycle::3              875356      5.58%     77.09% # Number of insts issued each cycle
system.cpu.iq.issued_per_cycle::4             1120443      7.14%     84.23% # Number of insts issued each cycle
system.cpu.iq.issued_per_cycle::5             1153130      7.35%     91.57% # Number of insts issued each cycle
system.cpu.iq.issued_per_cycle::6              789823      5.03%     96.60% # Number of insts issued each cycle
system.cpu.iq.issued_per_cycle::7              372973      2.38%     98.98% # Number of insts issued each cycle
system.cpu.iq.issued_per_cycle::8              160245      1.02%    100.00% # Number of insts issued each cycle
system.cpu.iq.issued_per_cycle::overflows            0      0.00%    100.00% # Number of insts issued each cycle
system.cpu.iq.issued_per_cycle::min_value            0                       # Number of insts issued each cycle
system.cpu.iq.issued_per_cycle::max_value            8                       # Number of insts issued each cycle
system.cpu.iq.issued_per_cycle::total        15697093                       # Number of insts issued each cycle
system.cpu.iq.rate                           1.760286                       # Inst issue rate
system.cpu.iq.vec_alu_accesses                      0                       # Number of vector alu accesses
system.cpu.iq.vec_inst_queue_reads                  0                       # Number of vector instruction queue reads
system.cpu.iq.vec_inst_queue_wakeup_accesses            0                       # Number of vector instruction queue wakeup accesses
system.cpu.iq.vec_inst_queue_writes                 0                       # Number of vector instruction queue writes
system.cpu.itb.rdAccesses                           0                       # TLB accesses on read requests
system.cpu.itb.rdMisses                             0                       # TLB misses on read requests
system.cpu.itb.wrAccesses                     3280842                       # TLB accesses on write requests
system.cpu.itb.wrMisses                            33                       # TLB misses on write requests
system.cpu.memDep0.conflictingLoads               928                       # Number of conflicting loads.
system.cpu.memDep0.conflictingStores              914                       # Number of conflicting stores.
system.cpu.memDep0.insertedLoads              4792836                       # Number of loads inserted to the mem dependence unit.
system.cpu.memDep0.insertedStores               26936                       # Number of stores inserted to the mem dependence unit.
system.cpu.misc_regfile_reads                13164552                       # number of misc regfile reads
system.cpu.misc_regfile_writes                      1                       # number of misc regfile writes
system.cpu.numCycles                         15709670                       # number of cpu cycles simulated
system.cpu.numWorkItemsCompleted                    0                       # number of work items this cpu completed
system.cpu.numWorkItemsStarted                      0                       # number of work items this cpu started
system.cpu.rename.BlockCycles                 5260559                       # Number of cycles rename is blocking
system.cpu.rename.CommittedMaps              27132083                       # Number of HB maps that are committed
system.cpu.rename.IQFullEvents                1728849                       # Number of times rename has blocked due to IQ full
system.cpu.rename.IdleCycles                  2518627                       # Number of cycles rename is idle
system.cpu.rename.LQFullEvents                3756637                       # Number of times rename has blocked due to LQ full
system.cpu.rename.ROBFullEvents                 35698                       # Number of times rename has blocked due to ROB full
system.cpu.rename.RenameLookups              47142921                       # Number of register rename lookups that rename has made
system.cpu.rename.RenamedInsts               22731367                       # Number of instructions processed by rename
system.cpu.rename.RenamedOperands            27710730                       # Number of destination operands rename has renamed
system.cpu.rename.RunCycles                   2779230                       # Number of cycles rename is running
system.cpu.rename.SQFullEvents                   2506                       # Number of times rename has blocked due to SQ full
system.cpu.rename.SquashCycles                  25381                       # Number of cycles rename is squashing
system.cpu.rename.UnblockCycles               5112257                       # Number of cycles rename is unblocking
system.cpu.rename.UndoneMaps                   578647                       # Number of HB maps that are undone due to squashing
system.cpu.rename.fp_rename_lookups           9636175                       # Number of floating rename lookups
system.cpu.rename.int_rename_lookups         21270788                       # Number of integer rename lookups
system.cpu.rename.serializeStallCycles           1039                       # count of cycles rename stalled for serializing inst
system.cpu.rename.serializingInsts                 23                       # count of serializing insts renamed
system.cpu.rename.skidInsts                   5699620                       # count of insts added to the skid buffer
system.cpu.rename.tempSerializingInsts             16                       # count of temporary serializing insts renamed
system.cpu.rob.rob_reads                     36061524                       # The number of ROB reads
system.cpu.rob.rob_writes                    45237760                       # The number of ROB writes
system.cpu.timesIdled                             180                       # Number of times that the entire CPU went into an idle state and unscheduled itself
system.cpu.workload.numSyscalls                     7                       # Number of system calls
system.l2bus.snoop_filter.hit_multi_requests            1                       # Number of requests hitting in the snoop filter with multiple (>1) holders of the requested data.
system.l2bus.snoop_filter.hit_multi_snoops            0                       # Number of snoops hitting in the snoop filter with multiple (>1) holders of the requested data.
system.l2bus.snoop_filter.hit_single_requests      1134252                       # Number of requests hitting in the snoop filter with a single holder of the requested data.
system.l2bus.snoop_filter.hit_single_snoops          293                       # Number of snoops hitting in the snoop filter with a single holder of the requested data.
system.l2bus.snoop_filter.tot_requests        2270868                       # Total number of requests made to the snoop filter.
system.l2bus.snoop_filter.tot_snoops              293                       # Total number of snoops made to the snoop filter.
system.membus.snoop_filter.hit_multi_requests            0                       # Number of requests hitting in the snoop filter with multiple (>1) holders of the requested data.
system.membus.snoop_filter.hit_multi_snoops            0                       # Number of snoops hitting in the snoop filter with multiple (>1) holders of the requested data.
system.membus.snoop_filter.hit_single_requests       184500                       # Number of requests hitting in the snoop filter with a single holder of the requested data.
system.membus.snoop_filter.hit_single_snoops            0                       # Number of snoops hitting in the snoop filter with a single holder of the requested data.
system.membus.snoop_filter.tot_requests        385677                       # Total number of requests made to the snoop filter.
system.membus.snoop_filter.tot_snoops               0                       # Total number of snoops made to the snoop filter.
system.membus.pwrStateResidencyTicks::UNDEFINED  15709669000                       # Cumulative time (in ticks) in various power states
system.membus.trans_dist::ReadResp             201086                       # Transaction distribution
system.membus.trans_dist::WritebackDirty         1553                       # Transaction distribution
system.membus.trans_dist::CleanEvict           182947                       # Transaction distribution
system.membus.trans_dist::ReadExReq                91                       # Transaction distribution
system.membus.trans_dist::ReadExResp               91                       # Transaction distribution
system.membus.trans_dist::ReadSharedReq        201086                       # Transaction distribution
system.membus.pkt_count_system.l2cache.mem_side::system.mem_ctrl.port       586854                       # Packet count per connected master and slave (bytes)
system.membus.pkt_count_system.l2cache.mem_side::total       586854                       # Packet count per connected master and slave (bytes)
system.membus.pkt_count::total                 586854                       # Packet count per connected master and slave (bytes)
system.membus.pkt_size_system.l2cache.mem_side::system.mem_ctrl.port     12974720                       # Cumulative packet size per connected master and slave (bytes)
system.membus.pkt_size_system.l2cache.mem_side::total     12974720                       # Cumulative packet size per connected master and slave (bytes)
system.membus.pkt_size::total                12974720                       # Cumulative packet size per connected master and slave (bytes)
system.membus.snoops                                0                       # Total snoops (count)
system.membus.snoopTraffic                          0                       # Total snoop traffic (bytes)
system.membus.snoop_fanout::samples            201177                       # Request fanout histogram
system.membus.snoop_fanout::mean                    0                       # Request fanout histogram
system.membus.snoop_fanout::stdev                   0                       # Request fanout histogram
system.membus.snoop_fanout::underflows              0      0.00%      0.00% # Request fanout histogram
system.membus.snoop_fanout::0                  201177    100.00%    100.00% # Request fanout histogram
system.membus.snoop_fanout::1                       0      0.00%    100.00% # Request fanout histogram
system.membus.snoop_fanout::overflows               0      0.00%    100.00% # Request fanout histogram
system.membus.snoop_fanout::min_value               0                       # Request fanout histogram
system.membus.snoop_fanout::max_value               0                       # Request fanout histogram
system.membus.snoop_fanout::total              201177                       # Request fanout histogram
system.membus.reqLayer2.occupancy           391889000                       # Layer occupancy (ticks)
system.membus.reqLayer2.utilization               2.5                       # Layer utilization (%)
system.membus.respLayer0.occupancy         1068118000                       # Layer occupancy (ticks)
system.membus.respLayer0.utilization              6.8                       # Layer utilization (%)
system.l2bus.pwrStateResidencyTicks::UNDEFINED  15709669000                       # Cumulative time (in ticks) in various power states
system.l2bus.trans_dist::ReadResp             1136524                       # Transaction distribution
system.l2bus.trans_dist::WritebackDirty          3268                       # Transaction distribution
system.l2bus.trans_dist::CleanEvict           1315777                       # Transaction distribution
system.l2bus.trans_dist::ReadExReq                 91                       # Transaction distribution
system.l2bus.trans_dist::ReadExResp                91                       # Transaction distribution
system.l2bus.trans_dist::ReadSharedReq        1136525                       # Transaction distribution
system.l2bus.pkt_count_system.cpu.icache.mem_side::system.l2cache.cpu_side          631                       # Packet count per connected master and slave (bytes)
system.l2bus.pkt_count_system.cpu.dcache.mem_side::system.l2cache.cpu_side      3406852                       # Packet count per connected master and slave (bytes)
system.l2bus.pkt_count::total                 3407483                       # Packet count per connected master and slave (bytes)
system.l2bus.pkt_size_system.cpu.icache.mem_side::system.l2cache.cpu_side        20160                       # Cumulative packet size per connected master and slave (bytes)
system.l2bus.pkt_size_system.cpu.dcache.mem_side::system.l2cache.cpu_side     72832960                       # Cumulative packet size per connected master and slave (bytes)
system.l2bus.pkt_size::total                 72853120                       # Cumulative packet size per connected master and slave (bytes)
system.l2bus.snoops                            184793                       # Total snoops (count)
system.l2bus.snoopTraffic                       99392                       # Total snoop traffic (bytes)
system.l2bus.snoop_fanout::samples            1321409                       # Request fanout histogram
system.l2bus.snoop_fanout::mean              0.000222                       # Request fanout histogram
system.l2bus.snoop_fanout::stdev             0.014914                       # Request fanout histogram
system.l2bus.snoop_fanout::underflows               0      0.00%      0.00% # Request fanout histogram
system.l2bus.snoop_fanout::0                  1321115     99.98%     99.98% # Request fanout histogram
system.l2bus.snoop_fanout::1                      294      0.02%    100.00% # Request fanout histogram
system.l2bus.snoop_fanout::2                        0      0.00%    100.00% # Request fanout histogram
system.l2bus.snoop_fanout::overflows                0      0.00%    100.00% # Request fanout histogram
system.l2bus.snoop_fanout::min_value                0                       # Request fanout histogram
system.l2bus.snoop_fanout::max_value                1                       # Request fanout histogram
system.l2bus.snoop_fanout::total              1321409                       # Request fanout histogram
system.l2bus.respLayer1.occupancy          3408900000                       # Layer occupancy (ticks)
system.l2bus.respLayer1.utilization              21.7                       # Layer utilization (%)
system.l2bus.reqLayer0.occupancy           2274298000                       # Layer occupancy (ticks)
system.l2bus.reqLayer0.utilization               14.5                       # Layer utilization (%)
system.l2bus.respLayer0.occupancy              945000                       # Layer occupancy (ticks)
system.l2bus.respLayer0.utilization               0.0                       # Layer utilization (%)
system.clk_domain.clock                          1000                       # Clock period in ticks
system.clk_domain.voltage_domain.voltage            1                       # Voltage in Volts
system.cpu.pwrStateResidencyTicks::ON     15709669000                       # Cumulative time (in ticks) in various power states
system.cpu.icache.pwrStateResidencyTicks::UNDEFINED  15709669000                       # Cumulative time (in ticks) in various power states
system.cpu.icache.demand_hits::.cpu.inst      3280411                       # number of demand (read+write) hits
system.cpu.icache.demand_hits::total          3280411                       # number of demand (read+write) hits
system.cpu.icache.overall_hits::.cpu.inst      3280411                       # number of overall hits
system.cpu.icache.overall_hits::total         3280411                       # number of overall hits
system.cpu.icache.demand_misses::.cpu.inst          427                       # number of demand (read+write) misses
system.cpu.icache.demand_misses::total            427                       # number of demand (read+write) misses
system.cpu.icache.overall_misses::.cpu.inst          427                       # number of overall misses
system.cpu.icache.overall_misses::total           427                       # number of overall misses
system.cpu.icache.demand_miss_latency::.cpu.inst     40018000                       # number of demand (read+write) miss cycles
system.cpu.icache.demand_miss_latency::total     40018000                       # number of demand (read+write) miss cycles
system.cpu.icache.overall_miss_latency::.cpu.inst     40018000                       # number of overall miss cycles
system.cpu.icache.overall_miss_latency::total     40018000                       # number of overall miss cycles
system.cpu.icache.demand_accesses::.cpu.inst      3280838                       # number of demand (read+write) accesses
system.cpu.icache.demand_accesses::total      3280838                       # number of demand (read+write) accesses
system.cpu.icache.overall_accesses::.cpu.inst      3280838                       # number of overall (read+write) accesses
system.cpu.icache.overall_accesses::total      3280838                       # number of overall (read+write) accesses
system.cpu.icache.demand_miss_rate::.cpu.inst     0.000130                       # miss rate for demand accesses
system.cpu.icache.demand_miss_rate::total     0.000130                       # miss rate for demand accesses
system.cpu.icache.overall_miss_rate::.cpu.inst     0.000130                       # miss rate for overall accesses
system.cpu.icache.overall_miss_rate::total     0.000130                       # miss rate for overall accesses
system.cpu.icache.demand_avg_miss_latency::.cpu.inst 93718.969555                       # average overall miss latency
system.cpu.icache.demand_avg_miss_latency::total 93718.969555                       # average overall miss latency
system.cpu.icache.overall_avg_miss_latency::.cpu.inst 93718.969555                       # average overall miss latency
system.cpu.icache.overall_avg_miss_latency::total 93718.969555                       # average overall miss latency
system.cpu.icache.blocked_cycles::no_mshrs          124                       # number of cycles access was blocked
system.cpu.icache.blocked_cycles::no_targets            0                       # number of cycles access was blocked
system.cpu.icache.blocked::no_mshrs                 4                       # number of cycles access was blocked
system.cpu.icache.blocked::no_targets               0                       # number of cycles access was blocked
system.cpu.icache.avg_blocked_cycles::no_mshrs           31                       # average number of cycles each access was blocked
system.cpu.icache.avg_blocked_cycles::no_targets          nan                       # average number of cycles each access was blocked
system.cpu.icache.demand_mshr_hits::.cpu.inst          111                       # number of demand (read+write) MSHR hits
system.cpu.icache.demand_mshr_hits::total          111                       # number of demand (read+write) MSHR hits
system.cpu.icache.overall_mshr_hits::.cpu.inst          111                       # number of overall MSHR hits
system.cpu.icache.overall_mshr_hits::total          111                       # number of overall MSHR hits
system.cpu.icache.demand_mshr_misses::.cpu.inst          316                       # number of demand (read+write) MSHR misses
system.cpu.icache.demand_mshr_misses::total          316                       # number of demand (read+write) MSHR misses
system.cpu.icache.overall_mshr_misses::.cpu.inst          316                       # number of overall MSHR misses
system.cpu.icache.overall_mshr_misses::total          316                       # number of overall MSHR misses
system.cpu.icache.demand_mshr_miss_latency::.cpu.inst     31109000                       # number of demand (read+write) MSHR miss cycles
system.cpu.icache.demand_mshr_miss_latency::total     31109000                       # number of demand (read+write) MSHR miss cycles
system.cpu.icache.overall_mshr_miss_latency::.cpu.inst     31109000                       # number of overall MSHR miss cycles
system.cpu.icache.overall_mshr_miss_latency::total     31109000                       # number of overall MSHR miss cycles
system.cpu.icache.demand_mshr_miss_rate::.cpu.inst     0.000096                       # mshr miss rate for demand accesses
system.cpu.icache.demand_mshr_miss_rate::total     0.000096                       # mshr miss rate for demand accesses
system.cpu.icache.overall_mshr_miss_rate::.cpu.inst     0.000096                       # mshr miss rate for overall accesses
system.cpu.icache.overall_mshr_miss_rate::total     0.000096                       # mshr miss rate for overall accesses
system.cpu.icache.demand_avg_mshr_miss_latency::.cpu.inst 98446.202532                       # average overall mshr miss latency
system.cpu.icache.demand_avg_mshr_miss_latency::total 98446.202532                       # average overall mshr miss latency
system.cpu.icache.overall_avg_mshr_miss_latency::.cpu.inst 98446.202532                       # average overall mshr miss latency
system.cpu.icache.overall_avg_mshr_miss_latency::total 98446.202532                       # average overall mshr miss latency
system.cpu.icache.replacements                      0                       # number of replacements
system.cpu.icache.ReadReq_hits::.cpu.inst      3280411                       # number of ReadReq hits
system.cpu.icache.ReadReq_hits::total         3280411                       # number of ReadReq hits
system.cpu.icache.ReadReq_misses::.cpu.inst          427                       # number of ReadReq misses
system.cpu.icache.ReadReq_misses::total           427                       # number of ReadReq misses
system.cpu.icache.ReadReq_miss_latency::.cpu.inst     40018000                       # number of ReadReq miss cycles
system.cpu.icache.ReadReq_miss_latency::total     40018000                       # number of ReadReq miss cycles
system.cpu.icache.ReadReq_accesses::.cpu.inst      3280838                       # number of ReadReq accesses(hits+misses)
system.cpu.icache.ReadReq_accesses::total      3280838                       # number of ReadReq accesses(hits+misses)
system.cpu.icache.ReadReq_miss_rate::.cpu.inst     0.000130                       # miss rate for ReadReq accesses
system.cpu.icache.ReadReq_miss_rate::total     0.000130                       # miss rate for ReadReq accesses
system.cpu.icache.ReadReq_avg_miss_latency::.cpu.inst 93718.969555                       # average ReadReq miss latency
system.cpu.icache.ReadReq_avg_miss_latency::total 93718.969555                       # average ReadReq miss latency
system.cpu.icache.ReadReq_mshr_hits::.cpu.inst          111                       # number of ReadReq MSHR hits
system.cpu.icache.ReadReq_mshr_hits::total          111                       # number of ReadReq MSHR hits
system.cpu.icache.ReadReq_mshr_misses::.cpu.inst          316                       # number of ReadReq MSHR misses
system.cpu.icache.ReadReq_mshr_misses::total          316                       # number of ReadReq MSHR misses
system.cpu.icache.ReadReq_mshr_miss_latency::.cpu.inst     31109000                       # number of ReadReq MSHR miss cycles
system.cpu.icache.ReadReq_mshr_miss_latency::total     31109000                       # number of ReadReq MSHR miss cycles
system.cpu.icache.ReadReq_mshr_miss_rate::.cpu.inst     0.000096                       # mshr miss rate for ReadReq accesses
system.cpu.icache.ReadReq_mshr_miss_rate::total     0.000096                       # mshr miss rate for ReadReq accesses
system.cpu.icache.ReadReq_avg_mshr_miss_latency::.cpu.inst 98446.202532                       # average ReadReq mshr miss latency
system.cpu.icache.ReadReq_avg_mshr_miss_latency::total 98446.202532                       # average ReadReq mshr miss latency
system.cpu.icache.tags.pwrStateResidencyTicks::UNDEFINED  15709669000                       # Cumulative time (in ticks) in various power states
system.cpu.icache.tags.tagsinuse           292.708598                       # Cycle average of tags in use
system.cpu.icache.tags.total_refs             3280726                       # Total number of references to valid blocks.
system.cpu.icache.tags.sampled_refs               315                       # Sample count of references to valid blocks.
system.cpu.icache.tags.avg_refs          10415.003175                       # Average number of references to valid blocks.
system.cpu.icache.tags.warmup_cycle            107000                       # Cycle when the warmup percentage was hit.
system.cpu.icache.tags.occ_blocks::.cpu.inst   292.708598                       # Average occupied blocks per requestor
system.cpu.icache.tags.occ_percent::.cpu.inst     0.142924                       # Average percentage of cache occupancy
system.cpu.icache.tags.occ_percent::total     0.142924                       # Average percentage of cache occupancy
system.cpu.icache.tags.occ_task_id_blocks::1024          315                       # Occupied blocks per task id
system.cpu.icache.tags.age_task_id_blocks_1024::0           22                       # Occupied blocks per task id
system.cpu.icache.tags.age_task_id_blocks_1024::4          293                       # Occupied blocks per task id
system.cpu.icache.tags.occ_task_id_percent::1024     0.153809                       # Percentage of cache occupancy per task id
system.cpu.icache.tags.tag_accesses           6561991                       # Number of tag accesses
system.cpu.icache.tags.data_accesses          6561991                       # Number of data accesses
system.cpu.dtb.walker.pwrStateResidencyTicks::UNDEFINED  15709669000                       # Cumulative time (in ticks) in various power states
system.cpu.interrupts.clk_domain.clock          16000                       # Clock period in ticks
system.cpu.itb.walker.pwrStateResidencyTicks::UNDEFINED  15709669000                       # Cumulative time (in ticks) in various power states
system.cpu.dcache.pwrStateResidencyTicks::UNDEFINED  15709669000                       # Cumulative time (in ticks) in various power states
system.cpu.dcache.demand_hits::.cpu.data      1819009                       # number of demand (read+write) hits
system.cpu.dcache.demand_hits::total          1819009                       # number of demand (read+write) hits
system.cpu.dcache.overall_hits::.cpu.data      1819009                       # number of overall hits
system.cpu.dcache.overall_hits::total         1819009                       # number of overall hits
system.cpu.dcache.demand_misses::.cpu.data      3042254                       # number of demand (read+write) misses
system.cpu.dcache.demand_misses::total        3042254                       # number of demand (read+write) misses
system.cpu.dcache.overall_misses::.cpu.data      3042254                       # number of overall misses
system.cpu.dcache.overall_misses::total       3042254                       # number of overall misses
system.cpu.dcache.demand_miss_latency::.cpu.data 188821507000                       # number of demand (read+write) miss cycles
system.cpu.dcache.demand_miss_latency::total 188821507000                       # number of demand (read+write) miss cycles
system.cpu.dcache.overall_miss_latency::.cpu.data 188821507000                       # number of overall miss cycles
system.cpu.dcache.overall_miss_latency::total 188821507000                       # number of overall miss cycles
system.cpu.dcache.demand_accesses::.cpu.data      4861263                       # number of demand (read+write) accesses
system.cpu.dcache.demand_accesses::total      4861263                       # number of demand (read+write) accesses
system.cpu.dcache.overall_accesses::.cpu.data      4861263                       # number of overall (read+write) accesses
system.cpu.dcache.overall_accesses::total      4861263                       # number of overall (read+write) accesses
system.cpu.dcache.demand_miss_rate::.cpu.data     0.625816                       # miss rate for demand accesses
system.cpu.dcache.demand_miss_rate::total     0.625816                       # miss rate for demand accesses
system.cpu.dcache.overall_miss_rate::.cpu.data     0.625816                       # miss rate for overall accesses
system.cpu.dcache.overall_miss_rate::total     0.625816                       # miss rate for overall accesses
system.cpu.dcache.demand_avg_miss_latency::.cpu.data 62066.318920                       # average overall miss latency
system.cpu.dcache.demand_avg_miss_latency::total 62066.318920                       # average overall miss latency
system.cpu.dcache.overall_avg_miss_latency::.cpu.data 62066.318920                       # average overall miss latency
system.cpu.dcache.overall_avg_miss_latency::total 62066.318920                       # average overall miss latency
system.cpu.dcache.blocked_cycles::no_mshrs      5185849                       # number of cycles access was blocked
system.cpu.dcache.blocked_cycles::no_targets            0                       # number of cycles access was blocked
system.cpu.dcache.blocked::no_mshrs            742668                       # number of cycles access was blocked
system.cpu.dcache.blocked::no_targets               0                       # number of cycles access was blocked
system.cpu.dcache.avg_blocked_cycles::no_mshrs     6.982728                       # average number of cycles each access was blocked
system.cpu.dcache.avg_blocked_cycles::no_targets          nan                       # average number of cycles each access was blocked
system.cpu.dcache.writebacks::.writebacks         1715                       # number of writebacks
system.cpu.dcache.writebacks::total              1715                       # number of writebacks
system.cpu.dcache.demand_mshr_hits::.cpu.data      1905954                       # number of demand (read+write) MSHR hits
system.cpu.dcache.demand_mshr_hits::total      1905954                       # number of demand (read+write) MSHR hits
system.cpu.dcache.overall_mshr_hits::.cpu.data      1905954                       # number of overall MSHR hits
system.cpu.dcache.overall_mshr_hits::total      1905954                       # number of overall MSHR hits
system.cpu.dcache.demand_mshr_misses::.cpu.data      1136300                       # number of demand (read+write) MSHR misses
system.cpu.dcache.demand_mshr_misses::total      1136300                       # number of demand (read+write) MSHR misses
system.cpu.dcache.overall_mshr_misses::.cpu.data      1136300                       # number of overall MSHR misses
system.cpu.dcache.overall_mshr_misses::total      1136300                       # number of overall MSHR misses
system.cpu.dcache.demand_mshr_miss_latency::.cpu.data  43656299000                       # number of demand (read+write) MSHR miss cycles
system.cpu.dcache.demand_mshr_miss_latency::total  43656299000                       # number of demand (read+write) MSHR miss cycles
system.cpu.dcache.overall_mshr_miss_latency::.cpu.data  43656299000                       # number of overall MSHR miss cycles
system.cpu.dcache.overall_mshr_miss_latency::total  43656299000                       # number of overall MSHR miss cycles
system.cpu.dcache.demand_mshr_miss_rate::.cpu.data     0.233746                       # mshr miss rate for demand accesses
system.cpu.dcache.demand_mshr_miss_rate::total     0.233746                       # mshr miss rate for demand accesses
system.cpu.dcache.overall_mshr_miss_rate::.cpu.data     0.233746                       # mshr miss rate for overall accesses
system.cpu.dcache.overall_mshr_miss_rate::total     0.233746                       # mshr miss rate for overall accesses
system.cpu.dcache.demand_avg_mshr_miss_latency::.cpu.data 38419.694623                       # average overall mshr miss latency
system.cpu.dcache.demand_avg_mshr_miss_latency::total 38419.694623                       # average overall mshr miss latency
system.cpu.dcache.overall_avg_mshr_miss_latency::.cpu.data 38419.694623                       # average overall mshr miss latency
system.cpu.dcache.overall_avg_mshr_miss_latency::total 38419.694623                       # average overall mshr miss latency
system.cpu.dcache.replacements                1134252                       # number of replacements
system.cpu.dcache.ReadReq_hits::.cpu.data      1793510                       # number of ReadReq hits
system.cpu.dcache.ReadReq_hits::total         1793510                       # number of ReadReq hits
system.cpu.dcache.ReadReq_misses::.cpu.data      3042162                       # number of ReadReq misses
system.cpu.dcache.ReadReq_misses::total       3042162                       # number of ReadReq misses
system.cpu.dcache.ReadReq_miss_latency::.cpu.data 188812053000                       # number of ReadReq miss cycles
system.cpu.dcache.ReadReq_miss_latency::total 188812053000                       # number of ReadReq miss cycles
system.cpu.dcache.ReadReq_accesses::.cpu.data      4835672                       # number of ReadReq accesses(hits+misses)
system.cpu.dcache.ReadReq_accesses::total      4835672                       # number of ReadReq accesses(hits+misses)
system.cpu.dcache.ReadReq_miss_rate::.cpu.data     0.629108                       # miss rate for ReadReq accesses
system.cpu.dcache.ReadReq_miss_rate::total     0.629108                       # miss rate for ReadReq accesses
system.cpu.dcache.ReadReq_avg_miss_latency::.cpu.data 62065.088250                       # average ReadReq miss latency
system.cpu.dcache.ReadReq_avg_miss_latency::total 62065.088250                       # average ReadReq miss latency
system.cpu.dcache.ReadReq_mshr_hits::.cpu.data      1905953                       # number of ReadReq MSHR hits
system.cpu.dcache.ReadReq_mshr_hits::total      1905953                       # number of ReadReq MSHR hits
system.cpu.dcache.ReadReq_mshr_misses::.cpu.data      1136209                       # number of ReadReq MSHR misses
system.cpu.dcache.ReadReq_mshr_misses::total      1136209                       # number of ReadReq MSHR misses
system.cpu.dcache.ReadReq_mshr_miss_latency::.cpu.data  43647107000                       # number of ReadReq MSHR miss cycles
system.cpu.dcache.ReadReq_mshr_miss_latency::total  43647107000                       # number of ReadReq MSHR miss cycles
system.cpu.dcache.ReadReq_mshr_miss_rate::.cpu.data     0.234964                       # mshr miss rate for ReadReq accesses
system.cpu.dcache.ReadReq_mshr_miss_rate::total     0.234964                       # mshr miss rate for ReadReq accesses
system.cpu.dcache.ReadReq_avg_mshr_miss_latency::.cpu.data 38414.681630                       # average ReadReq mshr miss latency
system.cpu.dcache.ReadReq_avg_mshr_miss_latency::total 38414.681630                       # average ReadReq mshr miss latency
system.cpu.dcache.WriteReq_hits::.cpu.data        25499                       # number of WriteReq hits
system.cpu.dcache.WriteReq_hits::total          25499                       # number of WriteReq hits
system.cpu.dcache.WriteReq_misses::.cpu.data           92                       # number of WriteReq misses
system.cpu.dcache.WriteReq_misses::total           92                       # number of WriteReq misses
system.cpu.dcache.WriteReq_miss_latency::.cpu.data      9454000                       # number of WriteReq miss cycles
system.cpu.dcache.WriteReq_miss_latency::total      9454000                       # number of WriteReq miss cycles
system.cpu.dcache.WriteReq_accesses::.cpu.data        25591                       # number of WriteReq accesses(hits+misses)
system.cpu.dcache.WriteReq_accesses::total        25591                       # number of WriteReq accesses(hits+misses)
system.cpu.dcache.WriteReq_miss_rate::.cpu.data     0.003595                       # miss rate for WriteReq accesses
system.cpu.dcache.WriteReq_miss_rate::total     0.003595                       # miss rate for WriteReq accesses
system.cpu.dcache.WriteReq_avg_miss_latency::.cpu.data 102760.869565                       # average WriteReq miss latency
system.cpu.dcache.WriteReq_avg_miss_latency::total 102760.869565                       # average WriteReq miss latency
system.cpu.dcache.WriteReq_mshr_hits::.cpu.data            1                       # number of WriteReq MSHR hits
system.cpu.dcache.WriteReq_mshr_hits::total            1                       # number of WriteReq MSHR hits
system.cpu.dcache.WriteReq_mshr_misses::.cpu.data           91                       # number of WriteReq MSHR misses
system.cpu.dcache.WriteReq_mshr_misses::total           91                       # number of WriteReq MSHR misses
system.cpu.dcache.WriteReq_mshr_miss_latency::.cpu.data      9192000                       # number of WriteReq MSHR miss cycles
system.cpu.dcache.WriteReq_mshr_miss_latency::total      9192000                       # number of WriteReq MSHR miss cycles
system.cpu.dcache.WriteReq_mshr_miss_rate::.cpu.data     0.003556                       # mshr miss rate for WriteReq accesses
system.cpu.dcache.WriteReq_mshr_miss_rate::total     0.003556                       # mshr miss rate for WriteReq accesses
system.cpu.dcache.WriteReq_avg_mshr_miss_latency::.cpu.data 101010.989011                       # average WriteReq mshr miss latency
system.cpu.dcache.WriteReq_avg_mshr_miss_latency::total 101010.989011                       # average WriteReq mshr miss latency
system.cpu.dcache.tags.pwrStateResidencyTicks::UNDEFINED  15709669000                       # Cumulative time (in ticks) in various power states
system.cpu.dcache.tags.tagsinuse          2039.794120                       # Cycle average of tags in use
system.cpu.dcache.tags.total_refs             2955309                       # Total number of references to valid blocks.
system.cpu.dcache.tags.sampled_refs           1136300                       # Sample count of references to valid blocks.
system.cpu.dcache.tags.avg_refs              2.600818                       # Average number of references to valid blocks.
system.cpu.dcache.tags.warmup_cycle            222000                       # Cycle when the warmup percentage was hit.
system.cpu.dcache.tags.occ_blocks::.cpu.data  2039.794120                       # Average occupied blocks per requestor
system.cpu.dcache.tags.occ_percent::.cpu.data     0.995993                       # Average percentage of cache occupancy
system.cpu.dcache.tags.occ_percent::total     0.995993                       # Average percentage of cache occupancy
system.cpu.dcache.tags.occ_task_id_blocks::1024         2048                       # Occupied blocks per task id
system.cpu.dcache.tags.age_task_id_blocks_1024::0          550                       # Occupied blocks per task id
system.cpu.dcache.tags.age_task_id_blocks_1024::1         1484                       # Occupied blocks per task id
system.cpu.dcache.tags.age_task_id_blocks_1024::2           14                       # Occupied blocks per task id
system.cpu.dcache.tags.occ_task_id_percent::1024            1                       # Percentage of cache occupancy per task id
system.cpu.dcache.tags.tag_accesses          10858826                       # Number of tag accesses
system.cpu.dcache.tags.data_accesses         10858826                       # Number of data accesses
system.l2cache.pwrStateResidencyTicks::UNDEFINED  15709669000                       # Cumulative time (in ticks) in various power states
system.l2cache.demand_hits::.cpu.inst               1                       # number of demand (read+write) hits
system.l2cache.demand_hits::.cpu.data          935437                       # number of demand (read+write) hits
system.l2cache.demand_hits::total              935438                       # number of demand (read+write) hits
system.l2cache.overall_hits::.cpu.inst              1                       # number of overall hits
system.l2cache.overall_hits::.cpu.data         935437                       # number of overall hits
system.l2cache.overall_hits::total             935438                       # number of overall hits
system.l2cache.demand_misses::.cpu.inst           315                       # number of demand (read+write) misses
system.l2cache.demand_misses::.cpu.data        200863                       # number of demand (read+write) misses
system.l2cache.demand_misses::total            201178                       # number of demand (read+write) misses
system.l2cache.overall_misses::.cpu.inst          315                       # number of overall misses
system.l2cache.overall_misses::.cpu.data       200863                       # number of overall misses
system.l2cache.overall_misses::total           201178                       # number of overall misses
system.l2cache.demand_miss_latency::.cpu.inst     30138000                       # number of demand (read+write) miss cycles
system.l2cache.demand_miss_latency::.cpu.data  19525362000                       # number of demand (read+write) miss cycles
system.l2cache.demand_miss_latency::total  19555500000                       # number of demand (read+write) miss cycles
system.l2cache.overall_miss_latency::.cpu.inst     30138000                       # number of overall miss cycles
system.l2cache.overall_miss_latency::.cpu.data  19525362000                       # number of overall miss cycles
system.l2cache.overall_miss_latency::total  19555500000                       # number of overall miss cycles
system.l2cache.demand_accesses::.cpu.inst          316                       # number of demand (read+write) accesses
[...]
system.mem_ctrl.wrQLenPdf::8                        1                       # What write queue length does an incoming req see
system.mem_ctrl.wrQLenPdf::9                        1                       # What write queue length does an incoming req see
system.mem_ctrl.wrQLenPdf::10                       1                       # What write queue length does an incoming req see
system.mem_ctrl.wrQLenPdf::11                       1                       # What write queue length does an incoming req see
system.mem_ctrl.wrQLenPdf::12                       1                       # What write queue length does an incoming req see
system.mem_ctrl.wrQLenPdf::13                       1                       # What write queue length does an incoming req see
system.mem_ctrl.wrQLenPdf::14                       1                       # What write queue length does an incoming req see
system.mem_ctrl.wrQLenPdf::15                      65                       # What write queue length does an incoming req see
system.mem_ctrl.wrQLenPdf::16                      72                       # What write queue length does an incoming req see
system.mem_ctrl.wrQLenPdf::17                      88                       # What write queue length does an incoming req see
system.mem_ctrl.wrQLenPdf::18                      88                       # What write queue length does an incoming req see
system.mem_ctrl.wrQLenPdf::19                      88                       # What write queue length does an incoming req see
system.mem_ctrl.wrQLenPdf::20                      88                       # What write queue length does an incoming req see
system.mem_ctrl.wrQLenPdf::21                      88                       # What write queue length does an incoming req see
system.mem_ctrl.wrQLenPdf::22                      88                       # What write queue length does an incoming req see
system.mem_ctrl.wrQLenPdf::23                      88                       # What write queue length does an incoming req see
system.mem_ctrl.wrQLenPdf::24                      88                       # What write queue length does an incoming req see
system.mem_ctrl.wrQLenPdf::25                      88                       # What write queue length does an incoming req see
system.mem_ctrl.wrQLenPdf::26                      87                       # What write queue length does an incoming req see
system.mem_ctrl.wrQLenPdf::27                      87                       # What write queue length does an incoming req see
system.mem_ctrl.wrQLenPdf::28                      87                       # What write queue length does an incoming req see
system.mem_ctrl.wrQLenPdf::29                      87                       # What write queue length does an incoming req see
system.mem_ctrl.wrQLenPdf::30                      87                       # What write queue length does an incoming req see
system.mem_ctrl.wrQLenPdf::31                      87                       # What write queue length does an incoming req see
system.mem_ctrl.wrQLenPdf::32                      87                       # What write queue length does an incoming req see
system.mem_ctrl.wrQLenPdf::33                       0                       # What write queue length does an incoming req see
system.mem_ctrl.wrQLenPdf::34                       0                       # What write queue length does an incoming req see
system.mem_ctrl.wrQLenPdf::35                       0                       # What write queue length does an incoming req see
system.mem_ctrl.wrQLenPdf::36                       0                       # What write queue length does an incoming req see
system.mem_ctrl.wrQLenPdf::37                       0                       # What write queue length does an incoming req see
system.mem_ctrl.wrQLenPdf::38                       0                       # What write queue length does an incoming req see
system.mem_ctrl.wrQLenPdf::39                       0                       # What write queue length does an incoming req see
system.mem_ctrl.wrQLenPdf::40                       0                       # What write queue length does an incoming req see
system.mem_ctrl.wrQLenPdf::41                       0                       # What write queue length does an incoming req see
system.mem_ctrl.wrQLenPdf::42                       0                       # What write queue length does an incoming req see
system.mem_ctrl.wrQLenPdf::43                       0                       # What write queue length does an incoming req see
system.mem_ctrl.wrQLenPdf::44                       0                       # What write queue length does an incoming req see
system.mem_ctrl.wrQLenPdf::45                       0                       # What write queue length does an incoming req see
system.mem_ctrl.wrQLenPdf::46                       0                       # What write queue length does an incoming req see
system.mem_ctrl.wrQLenPdf::47                       0                       # What write queue length does an incoming req see
system.mem_ctrl.wrQLenPdf::48                       0                       # What write queue length does an incoming req see
system.mem_ctrl.wrQLenPdf::49                       0                       # What write queue length does an incoming req see
system.mem_ctrl.wrQLenPdf::50                       0                       # What write queue length does an incoming req see
system.mem_ctrl.wrQLenPdf::51                       0                       # What write queue length does an incoming req see
system.mem_ctrl.wrQLenPdf::52                       0                       # What write queue length does an incoming req see
system.mem_ctrl.wrQLenPdf::53                       0                       # What write queue length does an incoming req see
system.mem_ctrl.wrQLenPdf::54                       0                       # What write queue length does an incoming req see
system.mem_ctrl.wrQLenPdf::55                       0                       # What write queue length does an incoming req see
system.mem_ctrl.wrQLenPdf::56                       0                       # What write queue length does an incoming req see
system.mem_ctrl.wrQLenPdf::57                       0                       # What write queue length does an incoming req see
system.mem_ctrl.wrQLenPdf::58                       0                       # What write queue length does an incoming req see
system.mem_ctrl.wrQLenPdf::59                       0                       # What write queue length does an incoming req see
system.mem_ctrl.wrQLenPdf::60                       0                       # What write queue length does an incoming req see
system.mem_ctrl.wrQLenPdf::61                       0                       # What write queue length does an incoming req see
system.mem_ctrl.wrQLenPdf::62                       0                       # What write queue length does an incoming req see
system.mem_ctrl.wrQLenPdf::63                       0                       # What write queue length does an incoming req see
system.mem_ctrl.bytesPerActivate::samples        20533                       # Bytes accessed per row activation
system.mem_ctrl.bytesPerActivate::mean     631.668436                       # Bytes accessed per row activation
system.mem_ctrl.bytesPerActivate::gmean    381.698194                       # Bytes accessed per row activation
system.mem_ctrl.bytesPerActivate::stdev    433.940651                       # Bytes accessed per row activation
system.mem_ctrl.bytesPerActivate::0-127          5448     26.53%     26.53% # Bytes accessed per row activation
system.mem_ctrl.bytesPerActivate::128-255         1546      7.53%     34.06% # Bytes accessed per row activation
system.mem_ctrl.bytesPerActivate::256-383          739      3.60%     37.66% # Bytes accessed per row activation
system.mem_ctrl.bytesPerActivate::384-511          572      2.79%     40.45% # Bytes accessed per row activation
system.mem_ctrl.bytesPerActivate::512-639          524      2.55%     43.00% # Bytes accessed per row activation
system.mem_ctrl.bytesPerActivate::640-767          475      2.31%     45.31% # Bytes accessed per row activation
system.mem_ctrl.bytesPerActivate::768-895          488      2.38%     47.69% # Bytes accessed per row activation
system.mem_ctrl.bytesPerActivate::896-1023          621      3.02%     50.71% # Bytes accessed per row activation
system.mem_ctrl.bytesPerActivate::1024-1151        10120     49.29%    100.00% # Bytes accessed per row activation
system.mem_ctrl.bytesPerActivate::total         20533                       # Bytes accessed per row activation
system.mem_ctrl.rdPerTurnAround::samples           87                       # Reads before turning the bus around for writes
system.mem_ctrl.rdPerTurnAround::mean     2277.919540                       # Reads before turning the bus around for writes
system.mem_ctrl.rdPerTurnAround::gmean    1181.815478                       # Reads before turning the bus around for writes
system.mem_ctrl.rdPerTurnAround::stdev    2154.402611                       # Reads before turning the bus around for writes
system.mem_ctrl.rdPerTurnAround::0-511             18     20.69%     20.69% # Reads before turning the bus around for writes
system.mem_ctrl.rdPerTurnAround::512-1023            8      9.20%     29.89% # Reads before turning the bus around for writes
system.mem_ctrl.rdPerTurnAround::1024-1535           15     17.24%     47.13% # Reads before turning the bus around for writes
system.mem_ctrl.rdPerTurnAround::1536-2047            2      2.30%     49.43% # Reads before turning the bus around for writes
system.mem_ctrl.rdPerTurnAround::2560-3071            4      4.60%     54.02% # Reads before turning the bus around for writes
system.mem_ctrl.rdPerTurnAround::3072-3583           21     24.14%     78.16% # Reads before turning the bus around for writes
system.mem_ctrl.rdPerTurnAround::3584-4095           12     13.79%     91.95% # Reads before turning the bus around for writes
system.mem_ctrl.rdPerTurnAround::4096-4607            4      4.60%     96.55% # Reads before turning the bus around for writes
system.mem_ctrl.rdPerTurnAround::4608-5119            1      1.15%     97.70% # Reads before turning the bus around for writes
system.mem_ctrl.rdPerTurnAround::5632-6143            1      1.15%     98.85% # Reads before turning the bus around for writes
system.mem_ctrl.rdPerTurnAround::15872-16383            1      1.15%    100.00% # Reads before turning the bus around for writes
system.mem_ctrl.rdPerTurnAround::total             87                       # Reads before turning the bus around for writes
system.mem_ctrl.wrPerTurnAround::samples           87                       # Writes before turning the bus around for reads
system.mem_ctrl.wrPerTurnAround::mean       17.551724                       # Writes before turning the bus around for reads
system.mem_ctrl.wrPerTurnAround::gmean      17.533469                       # Writes before turning the bus around for reads
system.mem_ctrl.wrPerTurnAround::stdev       0.788856                       # Writes before turning the bus around for reads
system.mem_ctrl.wrPerTurnAround::16                16     18.39%     18.39% # Writes before turning the bus around for reads
system.mem_ctrl.wrPerTurnAround::17                 7      8.05%     26.44% # Writes before turning the bus around for reads
system.mem_ctrl.wrPerTurnAround::18                64     73.56%    100.00% # Writes before turning the bus around for reads
system.mem_ctrl.wrPerTurnAround::total             87                       # Writes before turning the bus around for reads
system.mem_ctrl.bytesReadDRAM                12875328                       # Total number of bytes read from DRAM
system.mem_ctrl.bytesReadWrQ                        0                       # Total number of bytes read from write queue
system.mem_ctrl.bytesWritten                    97728                       # Total number of bytes written to DRAM
system.mem_ctrl.bytesReadSys                 12875328                       # Total read bytes from the system interface side
system.mem_ctrl.bytesWrittenSys                 99392                       # Total written bytes from the system interface side
system.mem_ctrl.avgRdBW                        819.58                       # Average DRAM read bandwidth in MiByte/s
system.mem_ctrl.avgWrBW                          6.22                       # Average achieved write bandwidth in MiByte/s
system.mem_ctrl.avgRdBWSys                     819.58                       # Average system read bandwidth in MiByte/s
system.mem_ctrl.avgWrBWSys                       6.33                       # Average system write bandwidth in MiByte/s
system.mem_ctrl.peakBW                       12800.00                       # Theoretical peak bandwidth in MiByte/s
system.mem_ctrl.busUtil                          6.45                       # Data bus utilization in percentage
system.mem_ctrl.busUtilRead                      6.40                       # Data bus utilization in percentage for reads
system.mem_ctrl.busUtilWrite                     0.05                       # Data bus utilization in percentage for writes
system.mem_ctrl.totGap                    15709528000                       # Total gap between requests
system.mem_ctrl.avgGap                       77489.90                       # Average gap between requests
system.mem_ctrl.masterReadBytes::.cpu.inst        20096                       # Per-master bytes read from memory
system.mem_ctrl.masterReadBytes::.cpu.data     12855232                       # Per-master bytes read from memory
system.mem_ctrl.masterWriteBytes::.writebacks        97728                       # Per-master bytes write to memory
system.mem_ctrl.masterReadRate::.cpu.inst 1279212.184546981938                       # Per-master bytes read from memory rate (Bytes/sec)
system.mem_ctrl.masterReadRate::.cpu.data 818300627.467071413994                       # Per-master bytes read from memory rate (Bytes/sec)
system.mem_ctrl.masterWriteRate::.writebacks 6220882.184086755849                       # Per-master bytes write to memory rate (Bytes/sec)
system.mem_ctrl.masterReadAccesses::.cpu.inst          314                       # Per-master read serviced memory accesses
system.mem_ctrl.masterReadAccesses::.cpu.data       200863                       # Per-master read serviced memory accesses
system.mem_ctrl.masterWriteAccesses::.writebacks         1553                       # Per-master write serviced memory accesses
system.mem_ctrl.masterReadTotalLat::.cpu.inst      7744500                       # Per-master read total memory access latency
system.mem_ctrl.masterReadTotalLat::.cpu.data   5194234250                       # Per-master read total memory access latency
system.mem_ctrl.masterWriteTotalLat::.writebacks 350515443500                       # Per-master write total memory access latency
system.mem_ctrl.masterReadAvgLat::.cpu.inst     24664.01                       # Per-master read average memory access latency
system.mem_ctrl.masterReadAvgLat::.cpu.data     25859.59                       # Per-master read average memory access latency
system.mem_ctrl.masterWriteAvgLat::.writebacks 225702152.93                       # Per-master write average memory access latency
system.mem_ctrl.pageHitRate                     89.85                       # Row buffer hit rate, read and write combined
system.mem_ctrl.rank1.actEnergy              69186600                       # Energy for activate commands per rank (pJ)
system.mem_ctrl.rank1.preEnergy              36746985                       # Energy for precharge commands per rank (pJ)
system.mem_ctrl.rank1.readEnergy            710958360                       # Energy for read commands per rank (pJ)
system.mem_ctrl.rank1.writeEnergy             2709180                       # Energy for write commands per rank (pJ)
system.mem_ctrl.rank1.refreshEnergy      1239728880.000000                       # Energy for refresh commands per rank (pJ)
system.mem_ctrl.rank1.actBackEnergy        5822012490                       # Energy for active background per rank (pJ)
system.mem_ctrl.rank1.preBackEnergy        1129765920                       # Energy for precharge background per rank (pJ)
system.mem_ctrl.rank1.actPowerDownEnergy            0                       # Energy for active power-down per rank (pJ)
system.mem_ctrl.rank1.prePowerDownEnergy            0                       # Energy for precharge power-down per rank (pJ)
system.mem_ctrl.rank1.selfRefreshEnergy             0                       # Energy for self refresh per rank (pJ)
system.mem_ctrl.rank1.totalEnergy          9011108415                       # Total energy per rank (pJ)
system.mem_ctrl.rank1.averagePower         573.602691                       # Core power per rank (mW)
system.mem_ctrl.rank1.totalIdleTime                 0                       # Total Idle time Per DRAM Rank
system.mem_ctrl.rank1.memoryStateTime::IDLE   2860243250                       # Time in different power states
system.mem_ctrl.rank1.memoryStateTime::REF    524420000                       # Time in different power states
system.mem_ctrl.rank1.memoryStateTime::SREF            0                       # Time in different power states
system.mem_ctrl.rank1.memoryStateTime::PRE_PDN            0                       # Time in different power states
system.mem_ctrl.rank1.memoryStateTime::ACT  12325005750                       # Time in different power states
system.mem_ctrl.rank1.memoryStateTime::ACT_PDN            0                       # Time in different power states
system.mem_ctrl.rank0.actEnergy              77497560                       # Energy for activate commands per rank (pJ)
system.mem_ctrl.rank0.preEnergy              41175750                       # Energy for precharge commands per rank (pJ)
system.mem_ctrl.rank0.readEnergy            725445420                       # Energy for read commands per rank (pJ)
system.mem_ctrl.rank0.writeEnergy             5261760                       # Energy for write commands per rank (pJ)
system.mem_ctrl.rank0.refreshEnergy      1239728880.000000                       # Energy for refresh commands per rank (pJ)
system.mem_ctrl.rank0.actBackEnergy        6200356830                       # Energy for active background per rank (pJ)
system.mem_ctrl.rank0.preBackEnergy         811160160                       # Energy for precharge background per rank (pJ)
system.mem_ctrl.rank0.actPowerDownEnergy            0                       # Energy for active power-down per rank (pJ)
system.mem_ctrl.rank0.prePowerDownEnergy            0                       # Energy for precharge power-down per rank (pJ)
system.mem_ctrl.rank0.selfRefreshEnergy             0                       # Energy for self refresh per rank (pJ)
system.mem_ctrl.rank0.totalEnergy          9100626360                       # Total energy per rank (pJ)
system.mem_ctrl.rank0.averagePower         579.300962                       # Core power per rank (mW)
system.mem_ctrl.rank0.totalIdleTime                 0                       # Total Idle time Per DRAM Rank
system.mem_ctrl.rank0.memoryStateTime::IDLE   2034219000                       # Time in different power states
system.mem_ctrl.rank0.memoryStateTime::REF    524420000                       # Time in different power states
system.mem_ctrl.rank0.memoryStateTime::SREF            0                       # Time in different power states
system.mem_ctrl.rank0.memoryStateTime::PRE_PDN            0                       # Time in different power states
system.mem_ctrl.rank0.memoryStateTime::ACT  13151030000                       # Time in different power states
system.mem_ctrl.rank0.memoryStateTime::ACT_PDN            0                       # Time in different power states

---------- End Simulation Statistics   ----------
