
---------- Begin Simulation Statistics ----------
final_tick                                 6872565000                       # Number of ticks from beginning of simulation (restored from checkpoints and never reset)
host_inst_rate                                 228725                       # Simulator instruction rate (inst/s)
host_mem_usage                                 793300                       # Number of bytes of host memory used
host_op_rate                                   352014                       # Simulator op (including micro ops) rate (op/s)
host_seconds                                    62.78                       # Real time elapsed on the host
host_tick_rate                              109472986                       # Simulator tick rate (ticks/s)
sim_freq                                 1000000000000                       # Frequency of simulated ticks
sim_insts                                    14359017                       # Number of instructions simulated
sim_ops                                      22098933                       # Number of ops (including micro ops) simulated
sim_seconds                                  0.006873                       # Number of seconds simulated
sim_ticks                                  6872565000                       # Number of ticks simulated
system.cpu.branchPred.BTBCorrect                    0                       # Number of correct BTB predictions (this stat may not work properly.
system.cpu.branchPred.BTBHitPct              0.000000                       # BTB Hit Percentage
system.cpu.branchPred.BTBHits                       0                       # Number of BTB hits
system.cpu.branchPred.BTBLookups               264985                       # Number of BTB lookups
system.cpu.branchPred.RASInCorrect                  1                       # Number of incorrect RAS predictions.
system.cpu.branchPred.condIncorrect               790                       # Number of conditional branches incorrect
system.cpu.branchPred.condPredicted            297808                       # Number of conditional branches predicted
system.cpu.branchPred.indirectHits             262736                       # Number of indirect target hits.
system.cpu.branchPred.indirectLookups          264985                       # Number of indirect predictor lookups.
system.cpu.branchPred.indirectMisses             2249                       # Number of indirect misses.
system.cpu.branchPred.lookups                  298544                       # Number of BP lookups
system.cpu.branchPred.usedRAS                     277                       # Number of times the RAS was used to get a target.
system.cpu.branchPredindirectMispredicted          436                       # Number of mispredicted indirect branches.
system.cpu.cc_regfile_reads                   1482669                       # number of cc regfile reads
system.cpu.cc_regfile_writes                  1710056                       # number of cc regfile writes
system.cpu.commit.amos                              0                       # Number of atomic instructions committed
system.cpu.commit.branchMispredicts               803                       # The number of times a branch was mispredicted
system.cpu.commit.branches                     296366                       # Number of branches committed
system.cpu.commit.bw_lim_events               2073963                       # number cycles where commit BW limit reached
system.cpu.commit.commitNonSpecStalls               8                       # The number of times commit has been forced to stall to communicate backwards
system.cpu.commit.commitSquashedInsts           26171                       # The number of squashed insts skipped by commit
system.cpu.commit.committedInsts             14359017                       # Number of instructions committed
system.cpu.commit.committedOps               22098933                       # Number of ops (including micro ops) committed
system.cpu.commit.committed_per_cycle::samples      6853629                       # Number of insts commited each cycle
system.cpu.commit.committed_per_cycle::mean     3.224413                       # Number of insts commited each cycle
system.cpu.commit.committed_per_cycle::stdev     3.439856                       # Number of insts commited each cycle
system.cpu.commit.committed_per_cycle::underflows            0      0.00%      0.00% # Number of insts commited each cycle
system.cpu.commit.committed_per_cycle::0      1889572     27.57%     27.57% # Number of insts commited each cycle
system.cpu.commit.committed_per_cycle::1      2227325     32.50%     60.07% # Number of insts commited each cycle
system.cpu.commit.committed_per_cycle::2        13757      0.20%     60.27% # Number of insts commited each cycle
system.cpu.commit.committed_per_cycle::3         4458      0.07%     60.33% # Number of insts commited each cycle
system.cpu.commit.committed_per_cycle::4       363594      5.31%     65.64% # Number of insts commited each cycle
system.cpu.commit.committed_per_cycle::5        39383      0.57%     66.21% # Number of insts commited each cycle
system.cpu.commit.committed_per_cycle::6       103314      1.51%     67.72% # Number of insts commited each cycle
system.cpu.commit.committed_per_cycle::7       138263      2.02%     69.74% # Number of insts commited each cycle
system.cpu.commit.committed_per_cycle::8      2073963     30.26%    100.00% # Number of insts commited each cycle
system.cpu.commit.committed_per_cycle::overflows            0      0.00%    100.00% # Number of insts commited each cycle
system.cpu.commit.committed_per_cycle::min_value            0                       # Number of insts commited each cycle
system.cpu.commit.committed_per_cycle::max_value            8                       # Number of insts commited each cycle
system.cpu.commit.committed_per_cycle::total      6853629                       # Number of insts commited each cycle
system.cpu.commit.fp_insts                   14942496                       # Number of committed floating point instructions.
system.cpu.commit.function_calls                   88                       # Number of function calls committed.
system.cpu.commit.int_insts                  13677168                       # Number of committed integer instructions.
system.cpu.commit.loads                       4523571                       # Number of loads committed
system.cpu.commit.membars                           0                       # Number of memory barriers committed
system.cpu.commit.op_class_0::No_OpClass        33063      0.15%      0.15% # Class of committed instruction
system.cpu.commit.op_class_0::IntAlu          7055063     31.92%     32.07% # Class of committed instruction
system.cpu.commit.op_class_0::IntMult               5      0.00%     32.07% # Class of committed instruction
system.cpu.commit.op_class_0::IntDiv               21      0.00%     32.07% # Class of committed instruction
system.cpu.commit.op_class_0::FloatAdd        4194306     18.98%     51.05% # Class of committed instruction
system.cpu.commit.op_class_0::FloatCmp              0      0.00%     51.05% # Class of committed instruction
system.cpu.commit.op_class_0::FloatCvt              0      0.00%     51.05% # Class of committed instruction
system.cpu.commit.op_class_0::FloatMult             0      0.00%     51.05% # Class of committed instruction
system.cpu.commit.op_class_0::FloatMultAcc            0      0.00%     51.05% # Class of committed instruction
system.cpu.commit.op_class_0::FloatDiv              0      0.00%     51.05% # Class of committed instruction
system.cpu.commit.op_class_0::FloatMisc             0      0.00%     51.05% # Class of committed instruction
system.cpu.commit.op_class_0::FloatSqrt             0      0.00%     51.05% # Class of committed instruction
system.cpu.commit.op_class_0::SimdAdd               0      0.00%     51.05% # Class of committed instruction
system.cpu.commit.op_class_0::SimdAddAcc            0      0.00%     51.05% # Class of committed instruction
system.cpu.commit.op_class_0::SimdAlu              34      0.00%     51.05% # Class of committed instruction
system.cpu.commit.op_class_0::SimdCmp               0      0.00%     51.05% # Class of committed instruction
system.cpu.commit.op_class_0::SimdCvt              28      0.00%     51.05% # Class of committed instruction
system.cpu.commit.op_class_0::SimdMisc             42      0.00%     51.05% # Class of committed instruction
system.cpu.commit.op_class_0::SimdMult              0      0.00%     51.05% # Class of committed instruction
system.cpu.commit.op_class_0::SimdMultAcc            0      0.00%     51.05% # Class of committed instruction
system.cpu.commit.op_class_0::SimdShift             0      0.00%     51.05% # Class of committed instruction
system.cpu.commit.op_class_0::SimdShiftAcc            0      0.00%     51.05% # Class of committed instruction
system.cpu.commit.op_class_0::SimdDiv               0      0.00%     51.05% # Class of committed instruction
system.cpu.commit.op_class_0::SimdSqrt              0      0.00%     51.05% # Class of committed instruction
system.cpu.commit.op_class_0::SimdFloatAdd      2097152      9.49%     60.54% # Class of committed instruction
system.cpu.commit.op_class_0::SimdFloatAlu            0      0.00%     60.54% # Class of committed instruction
system.cpu.commit.op_class_0::SimdFloatCmp            0      0.00%     60.54% # Class of committed instruction
system.cpu.commit.op_class_0::SimdFloatCvt            0      0.00%     60.54% # Class of committed instruction
system.cpu.commit.op_class_0::SimdFloatDiv            0      0.00%     60.54% # Class of committed instruction
system.cpu.commit.op_class_0::SimdFloatMisc            0      0.00%     60.54% # Class of committed instruction
system.cpu.commit.op_class_0::SimdFloatMult      2097152      9.49%     70.03% # Class of committed instruction
system.cpu.commit.op_class_0::SimdFloatMultAcc            0      0.00%     70.03% # Class of committed instruction
system.cpu.commit.op_class_0::SimdFloatSqrt            0      0.00%     70.03% # Class of committed instruction
system.cpu.commit.op_class_0::SimdReduceAdd            0      0.00%     70.03% # Class of committed instruction
system.cpu.commit.op_class_0::SimdReduceAlu            0      0.00%     70.03% # Class of committed instruction
system.cpu.commit.op_class_0::SimdReduceCmp            0      0.00%     70.03% # Class of committed instruction
system.cpu.commit.op_class_0::SimdFloatReduceAdd            0      0.00%     70.03% # Class of committed instruction
system.cpu.commit.op_class_0::SimdFloatReduceCmp            0      0.00%     70.03% # Class of committed instruction
system.cpu.commit.op_class_0::SimdAes               0      0.00%     70.03% # Class of committed instruction
system.cpu.commit.op_class_0::SimdAesMix            0      0.00%     70.03% # Class of committed instruction
system.cpu.commit.op_class_0::SimdSha1Hash            0      0.00%     70.03% # Class of committed instruction
system.cpu.commit.op_class_0::SimdSha1Hash2            0      0.00%     70.03% # Class of committed instruction
system.cpu.commit.op_class_0::SimdSha256Hash            0      0.00%     70.03% # Class of committed instruction
system.cpu.commit.op_class_0::SimdSha256Hash2            0      0.00%     70.03% # Class of committed instruction
system.cpu.commit.op_class_0::SimdShaSigma2            0      0.00%     70.03% # Class of committed instruction
system.cpu.commit.op_class_0::SimdShaSigma3            0      0.00%     70.03% # Class of committed instruction
system.cpu.commit.op_class_0::SimdPredAlu            0      0.00%     70.03% # Class of committed instruction
system.cpu.commit.op_class_0::MemRead           67099      0.30%     70.34% # Class of committed instruction
system.cpu.commit.op_class_0::MemWrite           1192      0.01%     70.34% # Class of committed instruction
system.cpu.commit.op_class_0::FloatMemRead      4456472     20.17%     90.51% # Class of committed instruction
system.cpu.commit.op_class_0::FloatMemWrite      2097304      9.49%    100.00% # Class of committed instruction
system.cpu.commit.op_class_0::IprAccess             0      0.00%    100.00% # Class of committed instruction
system.cpu.commit.op_class_0::InstPrefetch            0      0.00%    100.00% # Class of committed instruction
system.cpu.commit.op_class_0::total          22098933                       # Class of committed instruction
system.cpu.commit.refs                        6622067                       # Number of memory references committed
system.cpu.commit.swp_count                         0                       # Number of s/w prefetches committed
system.cpu.commit.vec_insts                         0                       # Number of committed Vector instructions.
system.cpu.committedInsts                    14359017                       # Number of Instructions Simulated
system.cpu.committedOps                      22098933                       # Number of Ops (including micro ops) Simulated
system.cpu.cpi                               0.478624                       # CPI: Cycles Per Instruction
system.cpu.cpi_total                         0.478624                       # CPI: Total CPI of All Threads
system.cpu.decode.BlockedCycles               3474870                       # Number of cycles decode is blocked
system.cpu.decode.DecodedInsts               22138750                       # Number of instructions handled by decode
system.cpu.decode.IdleCycles                   508988                       # Number of cycles decode is idle
system.cpu.decode.RunCycles                   1702730                       # Number of cycles decode is running
system.cpu.decode.SquashCycles                    950                       # Number of cycles decode is squashing
system.cpu.decode.UnblockCycles               1169981                       # Number of cycles decode is unblocking
system.cpu.dtb.rdAccesses                     4884308                       # TLB accesses on read requests
system.cpu.dtb.rdMisses                            98                       # TLB misses on read requests
system.cpu.dtb.wrAccesses                     2099144                       # TLB accesses on write requests
system.cpu.dtb.wrMisses                            11                       # TLB misses on write requests
system.cpu.fetch.Branches                      298544                       # Number of branches that fetch encountered
system.cpu.fetch.CacheLines                   1642595                       # Number of cache lines fetched
system.cpu.fetch.Cycles                       5204338                       # Number of cycles fetch has run and was not squashing or blocked
system.cpu.fetch.IcacheSquashes                   398                       # Number of outstanding Icache misses that were squashed
system.cpu.fetch.Insts                       14387621                       # Number of instructions fetch has processed
system.cpu.fetch.MiscStallCycles                   17                       # Number of cycles fetch has spent waiting on interrupts, or bad addresses, or out of MSHRs
system.cpu.fetch.PendingQuiesceStallCycles            7                       # Number of stall cycles due to pending quiesce instructions
system.cpu.fetch.PendingTrapStallCycles            85                       # Number of stall cycles due to pending traps
system.cpu.fetch.SquashCycles                    1900                       # Number of cycles fetch has spent squashing
system.cpu.fetch.branchRate                  0.043440                       # Number of branch fetches per cycle
system.cpu.fetch.icacheStallCycles            1652122                       # Number of cycles fetch is stalled on an Icache miss
system.cpu.fetch.predictedBranches             263013                       # Number of branches that fetch has predicted taken
system.cpu.fetch.rate                        2.093486                       # Number of inst fetches per cycle
system.cpu.fetch.rateDist::samples            6857519                       # Number of instructions fetched each cycle (Total)
system.cpu.fetch.rateDist::mean              3.229348                       # Number of instructions fetched each cycle (Total)
system.cpu.fetch.rateDist::stdev             3.508586                       # Number of instructions fetched each cycle (Total)
system.cpu.fetch.rateDist::underflows               0      0.00%      0.00% # Number of instructions fetched each cycle (Total)
system.cpu.fetch.rateDist::0                  3294057     48.04%     48.04% # Number of instructions fetched each cycle (Total)
system.cpu.fetch.rateDist::1                    93822      1.37%     49.40% # Number of instructions fetched each cycle (Total)
system.cpu.fetch.rateDist::2                   350867      5.12%     54.52% # Number of instructions fetched each cycle (Total)
system.cpu.fetch.rateDist::3                   176087      2.57%     57.09% # Number of instructions fetched each cycle (Total)
system.cpu.fetch.rateDist::4                   320624      4.68%     61.76% # Number of instructions fetched each cycle (Total)
system.cpu.fetch.rateDist::5                    92533      1.35%     63.11% # Number of instructions fetched each cycle (Total)
system.cpu.fetch.rateDist::6                   457708      6.67%     69.79% # Number of instructions fetched each cycle (Total)
system.cpu.fetch.rateDist::7                   244482      3.57%     73.35% # Number of instructions fetched each cycle (Total)
system.cpu.fetch.rateDist::8                  1827339     26.65%    100.00% # Number of instructions fetched each cycle (Total)
system.cpu.fetch.rateDist::overflows                0      0.00%    100.00% # Number of instructions fetched each cycle (Total)
system.cpu.fetch.rateDist::min_value                0                       # Number of instructions fetched each cycle (Total)
system.cpu.fetch.rateDist::max_value                8                       # Number of instructions fetched each cycle (Total)
system.cpu.fetch.rateDist::total              6857519                       # Number of instructions fetched each cycle (Total)
system.cpu.fp_regfile_reads                  14681383                       # number of floating regfile reads
system.cpu.fp_regfile_writes                 12847184                       # number of floating regfile writes
system.cpu.idleCycles                           15047                       # Total number of cycles that the CPU has spent unscheduled due to idling
system.cpu.iew.branchMispredicts                  945                       # Number of branch mispredicts detected at execute
system.cpu.iew.exec_branches                   296867                       # Number of branches executed
system.cpu.iew.exec_nop                             0                       # number of nop insts executed
system.cpu.iew.exec_rate                     3.231979                       # Inst execution rate
system.cpu.iew.exec_refs                      6721409                       # number of memory reference insts executed
system.cpu.iew.exec_stores                    2099143                       # Number of stores executed
system.cpu.iew.exec_swp                             0                       # number of swp insts executed
system.cpu.iew.iewBlockCycles                    8522                       # Number of cycles IEW is blocking
system.cpu.iew.iewDispLoadInsts               4527060                       # Number of dispatched load instructions
system.cpu.iew.iewDispNonSpecInsts                 28                       # Number of dispatched non-speculative instructions
system.cpu.iew.iewDispSquashedInsts                35                       # Number of squashed instructions skipped by dispatch
system.cpu.iew.iewDispStoreInsts              2100286                       # Number of dispatched store instructions
system.cpu.iew.iewDispatchedInsts            22125081                       # Number of instructions dispatched to IQ
system.cpu.iew.iewExecLoadInsts               4622266                       # Number of load instructions executed
system.cpu.iew.iewExecSquashedInsts              2342                       # Number of squashed instructions skipped in execute
system.cpu.iew.iewExecutedInsts              22211990                       # Number of executed instructions
system.cpu.iew.iewIQFullEvents                    174                       # Number of times the IQ has become full, causing a stall
system.cpu.iew.iewIdleCycles                        0                       # Number of cycles IEW is idle
system.cpu.iew.iewLSQFullEvents                 88994                       # Number of times the LSQ has become full, causing a stall
system.cpu.iew.iewSquashCycles                    950                       # Number of cycles IEW is squashing
system.cpu.iew.iewUnblockCycles                 89247                       # Number of cycles IEW is unblocking
system.cpu.iew.lsq.thread0.blockedLoads             0                       # Number of blocked loads due to partial load-store forwarding
system.cpu.iew.lsq.thread0.cacheBlocked            57                       # Number of times an access to memory failed due to the cache being blocked
system.cpu.iew.lsq.thread0.forwLoads              363                       # Number of loads that had data forwarded from stores
system.cpu.iew.lsq.thread0.ignoredResponses            1                       # Number of memory responses ignored because the instruction is squashed
system.cpu.iew.lsq.thread0.invAddrLoads             0                       # Number of loads ignored due to an invalid address
system.cpu.iew.lsq.thread0.invAddrSwpfs             0                       # Number of software prefetches ignored due to an invalid address
system.cpu.iew.lsq.thread0.memOrderViolation          159                       # Number of memory ordering violations
system.cpu.iew.lsq.thread0.rescheduledLoads        96798                       # Number of loads that were rescheduled
system.cpu.iew.lsq.thread0.squashedLoads         3489                       # Number of loads squashed
system.cpu.iew.lsq.thread0.squashedStores         1790                       # Number of stores squashed
system.cpu.iew.memOrderViolationEvents            159                       # Number of memory order violations
system.cpu.iew.predictedNotTakenIncorrect          675                       # Number of branches that were predicted not taken incorrectly
system.cpu.iew.predictedTakenIncorrect            270                       # Number of branches that were predicted taken incorrectly
system.cpu.iew.wb_consumers                  19399513                       # num instructions consuming a value
system.cpu.iew.wb_count                      22114125                       # cumulative count of insts written-back
system.cpu.iew.wb_fanout                     0.698513                       # average fanout of values written-back
system.cpu.iew.wb_producers                  13550819                       # num instructions producing a value
system.cpu.iew.wb_rate                       3.217739                       # insts written-back per cycle
system.cpu.iew.wb_sent                       22114450                       # cumulative count of insts sent to commit
system.cpu.int_regfile_reads                 24778000                       # number of integer regfile reads
system.cpu.int_regfile_writes                 6837698                       # number of integer regfile writes
system.cpu.ipc                               2.089324                       # IPC: Instructions Per Cycle
system.cpu.ipc_total                         2.089324                       # IPC: Total IPC of All Threads
system.cpu.iq.FU_type_0::No_OpClass             33624      0.15%      0.15% # Type of FU issued
system.cpu.iq.FU_type_0::IntAlu               7067529     31.82%     31.97% # Type of FU issued
system.cpu.iq.FU_type_0::IntMult                    5      0.00%     31.97% # Type of FU issued
system.cpu.iq.FU_type_0::IntDiv                    23      0.00%     31.97% # Type of FU issued
system.cpu.iq.FU_type_0::FloatAdd             4196361     18.89%     50.86% # Type of FU issued
system.cpu.iq.FU_type_0::FloatCmp                   0      0.00%     50.86% # Type of FU issued
system.cpu.iq.FU_type_0::FloatCvt                   0      0.00%     50.86% # Type of FU issued
system.cpu.iq.FU_type_0::FloatMult                  0      0.00%     50.86% # Type of FU issued
system.cpu.iq.FU_type_0::FloatMultAcc               0      0.00%     50.86% # Type of FU issued
system.cpu.iq.FU_type_0::FloatDiv                   0      0.00%     50.86% # Type of FU issued
system.cpu.iq.FU_type_0::FloatMisc                  0      0.00%     50.86% # Type of FU issued
system.cpu.iq.FU_type_0::FloatSqrt                  0      0.00%     50.86% # Type of FU issued
system.cpu.iq.FU_type_0::SimdAdd                    0      0.00%     50.86% # Type of FU issued
system.cpu.iq.FU_type_0::SimdAddAcc                 0      0.00%     50.86% # Type of FU issued
system.cpu.iq.FU_type_0::SimdAlu                   56      0.00%     50.86% # Type of FU issued
system.cpu.iq.FU_type_0::SimdCmp                    0      0.00%     50.86% # Type of FU issued
system.cpu.iq.FU_type_0::SimdCvt                   42      0.00%     50.86% # Type of FU issued
system.cpu.iq.FU_type_0::SimdMisc                  56      0.00%     50.86% # Type of FU issued
system.cpu.iq.FU_type_0::SimdMult                   0      0.00%     50.86% # Type of FU issued
system.cpu.iq.FU_type_0::SimdMultAcc                0      0.00%     50.86% # Type of FU issued
system.cpu.iq.FU_type_0::SimdShift                  0      0.00%     50.86% # Type of FU issued
system.cpu.iq.FU_type_0::SimdShiftAcc               0      0.00%     50.86% # Type of FU issued
system.cpu.iq.FU_type_0::SimdDiv                    0      0.00%     50.86% # Type of FU issued
system.cpu.iq.FU_type_0::SimdSqrt                   0      0.00%     50.86% # Type of FU issued
system.cpu.iq.FU_type_0::SimdFloatAdd         2097261      9.44%     60.30% # Type of FU issued
system.cpu.iq.FU_type_0::SimdFloatAlu               0      0.00%     60.30% # Type of FU issued
system.cpu.iq.FU_type_0::SimdFloatCmp               0      0.00%     60.30% # Type of FU issued
system.cpu.iq.FU_type_0::SimdFloatCvt               0      0.00%     60.30% # Type of FU issued
system.cpu.iq.FU_type_0::SimdFloatDiv               0      0.00%     60.30% # Type of FU issued
system.cpu.iq.FU_type_0::SimdFloatMisc              0      0.00%     60.30% # Type of FU issued
system.cpu.iq.FU_type_0::SimdFloatMult        2097314      9.44%     69.74% # Type of FU issued
system.cpu.iq.FU_type_0::SimdFloatMultAcc            0      0.00%     69.74% # Type of FU issued
system.cpu.iq.FU_type_0::SimdFloatSqrt              0      0.00%     69.74% # Type of FU issued
system.cpu.iq.FU_type_0::SimdReduceAdd              0      0.00%     69.74% # Type of FU issued
system.cpu.iq.FU_type_0::SimdReduceAlu              0      0.00%     69.74% # Type of FU issued
system.cpu.iq.FU_type_0::SimdReduceCmp              0      0.00%     69.74% # Type of FU issued
system.cpu.iq.FU_type_0::SimdFloatReduceAdd            0      0.00%     69.74% # Type of FU issued
system.cpu.iq.FU_type_0::SimdFloatReduceCmp            0      0.00%     69.74% # Type of FU issued
system.cpu.iq.FU_type_0::SimdAes                    0      0.00%     69.74% # Type of FU issued
system.cpu.iq.FU_type_0::SimdAesMix                 0      0.00%     69.74% # Type of FU issued
system.cpu.iq.FU_type_0::SimdSha1Hash               0      0.00%     69.74% # Type of FU issued
system.cpu.iq.FU_type_0::SimdSha1Hash2              0      0.00%     69.74% # Type of FU issued
system.cpu.iq.FU_type_0::SimdSha256Hash             0      0.00%     69.74% # Type of FU issued
system.cpu.iq.FU_type_0::SimdSha256Hash2            0      0.00%     69.74% # Type of FU issued
system.cpu.iq.FU_type_0::SimdShaSigma2              0      0.00%     69.74% # Type of FU issued
system.cpu.iq.FU_type_0::SimdShaSigma3              0      0.00%     69.74% # Type of FU issued
system.cpu.iq.FU_type_0::SimdPredAlu                0      0.00%     69.74% # Type of FU issued
system.cpu.iq.FU_type_0::MemRead                68426      0.31%     70.05% # Type of FU issued
system.cpu.iq.FU_type_0::MemWrite                1916      0.01%     70.06% # Type of FU issued
system.cpu.iq.FU_type_0::FloatMemRead         4554319     20.50%     90.56% # Type of FU issued
system.cpu.iq.FU_type_0::FloatMemWrite        2097400      9.44%    100.00% # Type of FU issued
system.cpu.iq.FU_type_0::IprAccess                  0      0.00%    100.00% # Type of FU issued
system.cpu.iq.FU_type_0::InstPrefetch               0      0.00%    100.00% # Type of FU issued
system.cpu.iq.FU_type_0::total               22214332                       # Type of FU issued
system.cpu.iq.fp_alu_accesses                15060763                       # Number of floating point alu accesses
system.cpu.iq.fp_inst_queue_reads            30103669                       # Number of floating instruction queue reads
system.cpu.iq.fp_inst_queue_wakeup_accesses     14944508                       # Number of floating instruction queue wakeup accesses
system.cpu.iq.fp_inst_queue_writes           14954298                       # Number of floating instruction queue writes
system.cpu.iq.fu_busy_cnt                       42451                       # FU busy when requested
system.cpu.iq.fu_busy_rate                   0.001911                       # FU busy rate (busy events/executed inst)
system.cpu.iq.fu_full::No_OpClass                   0      0.00%      0.00% # attempts to use FU when none available
system.cpu.iq.fu_full::IntAlu                   24476     57.66%     57.66% # attempts to use FU when none available
system.cpu.iq.fu_full::IntMult                      0      0.00%     57.66% # attempts to use FU when none available
system.cpu.iq.fu_full::IntDiv                       0      0.00%     57.66% # attempts to use FU when none available
system.cpu.iq.fu_full::FloatAdd                  3707      8.73%     66.39% # attempts to use FU when none available
system.cpu.iq.fu_full::FloatCmp                     0      0.00%     66.39% # attempts to use FU when none available
system.cpu.iq.fu_full::FloatCvt                     0      0.00%     66.39% # attempts to use FU when none available
system.cpu.iq.fu_full::FloatMult                    0      0.00%     66.39% # attempts to use FU when none available
system.cpu.iq.fu_full::FloatMultAcc                 0      0.00%     66.39% # attempts to use FU when none available
system.cpu.iq.fu_full::FloatDiv                     0      0.00%     66.39% # attempts to use FU when none available
system.cpu.iq.fu_full::FloatMisc                    0      0.00%     66.39% # attempts to use FU when none available
system.cpu.iq.fu_full::FloatSqrt                    0      0.00%     66.39% # attempts to use FU when none available
system.cpu.iq.fu_full::SimdAdd                      0      0.00%     66.39% # attempts to use FU when none available
system.cpu.iq.fu_full::SimdAddAcc                   0      0.00%     66.39% # attempts to use FU when none available
system.cpu.iq.fu_full::SimdAlu                      2      0.00%     66.39% # attempts to use FU when none available
system.cpu.iq.fu_full::SimdCmp                      0      0.00%     66.39% # attempts to use FU when none available
system.cpu.iq.fu_full::SimdCvt                      2      0.00%     66.40% # attempts to use FU when none available
system.cpu.iq.fu_full::SimdMisc                     0      0.00%     66.40% # attempts to use FU when none available
system.cpu.iq.fu_full::SimdMult                     0      0.00%     66.40% # attempts to use FU when none available
system.cpu.iq.fu_full::SimdMultAcc                  0      0.00%     66.40% # attempts to use FU when none available
system.cpu.iq.fu_full::SimdShift                    0      0.00%     66.40% # attempts to use FU when none available
system.cpu.iq.fu_full::SimdShiftAcc                 0      0.00%     66.40% # attempts to use FU when none available
system.cpu.iq.fu_full::SimdDiv                      0      0.00%     66.40% # attempts to use FU when none available
system.cpu.iq.fu_full::SimdSqrt                     0      0.00%     66.40% # attempts to use FU when none available
system.cpu.iq.fu_full::SimdFloatAdd                 0      0.00%     66.40% # attempts to use FU when none available
system.cpu.iq.fu_full::SimdFloatAlu                 0      0.00%     66.40% # attempts to use FU when none available
system.cpu.iq.fu_full::SimdFloatCmp                 0      0.00%     66.40% # attempts to use FU when none available
system.cpu.iq.fu_full::SimdFloatCvt                 0      0.00%     66.40% # attempts to use FU when none available
system.cpu.iq.fu_full::SimdFloatDiv                 0      0.00%     66.40% # attempts to use FU when none available
system.cpu.iq.fu_full::SimdFloatMisc                0      0.00%     66.40% # attempts to use FU when none available
system.cpu.iq.fu_full::SimdFloatMult            14214     33.48%     99.88% # attempts to use FU when none available
system.cpu.iq.fu_full::SimdFloatMultAcc             0      0.00%     99.88% # attempts to use FU when none available
system.cpu.iq.fu_full::SimdFloatSqrt                0      0.00%     99.88% # attempts to use FU when none available
system.cpu.iq.fu_full::SimdReduceAdd                0      0.00%     99.88% # attempts to use FU when none available
system.cpu.iq.fu_full::SimdReduceAlu                0      0.00%     99.88% # attempts to use FU when none available
system.cpu.iq.fu_full::SimdReduceCmp                0      0.00%     99.88% # attempts to use FU when none available
system.cpu.iq.fu_full::SimdFloatReduceAdd            0      0.00%     99.88% # attempts to use FU when none available
system.cpu.iq.fu_full::SimdFloatReduceCmp            0      0.00%     99.88% # attempts to use FU when none available
system.cpu.iq.fu_full::SimdAes                      0      0.00%     99.88% # attempts to use FU when none available
system.cpu.iq.fu_full::SimdAesMix                   0      0.00%     99.88% # attempts to use FU when none available
system.cpu.iq.fu_full::SimdSha1Hash                 0      0.00%     99.88% # attempts to use FU when none available
system.cpu.iq.fu_full::SimdSha1Hash2                0      0.00%     99.88% # attempts to use FU when none available
system.cpu.iq.fu_full::SimdSha256Hash               0      0.00%     99.88% # attempts to use FU when none available
system.cpu.iq.fu_full::SimdSha256Hash2              0      0.00%     99.88% # attempts to use FU when none available
system.cpu.iq.fu_full::SimdShaSigma2                0      0.00%     99.88% # attempts to use FU when none available
system.cpu.iq.fu_full::SimdShaSigma3                0      0.00%     99.88% # attempts to use FU when none available
system.cpu.iq.fu_full::SimdPredAlu                  0      0.00%     99.88% # attempts to use FU when none available
system.cpu.iq.fu_full::MemRead                      5      0.01%     99.89% # attempts to use FU when none available
system.cpu.iq.fu_full::MemWrite                    26      0.06%     99.96% # attempts to use FU when none available
system.cpu.iq.fu_full::FloatMemRead                12      0.03%     99.98% # attempts to use FU when none available
system.cpu.iq.fu_full::FloatMemWrite                7      0.02%    100.00% # attempts to use FU when none available
system.cpu.iq.fu_full::IprAccess                    0      0.00%    100.00% # attempts to use FU when none available
system.cpu.iq.fu_full::InstPrefetch                 0      0.00%    100.00% # attempts to use FU when none available
system.cpu.iq.int_alu_accesses                7162396                       # Number of integer alu accesses
system.cpu.iq.int_inst_queue_reads           21225305                       # Number of integer instruction queue reads
system.cpu.iq.int_inst_queue_wakeup_accesses      7169617                       # Number of integer instruction queue wakeup accesses
system.cpu.iq.int_inst_queue_writes           7197088                       # Number of integer instruction queue writes
system.cpu.iq.iqInstsAdded                   22125022                       # Number of instructions added to the IQ (excludes non-spec)
system.cpu.iq.iqInstsIssued                  22214332                       # Number of instructions issued
system.cpu.iq.iqNonSpecInstsAdded                  59                       # Number of non-speculative instructions added to the IQ
system.cpu.iq.iqSquashedInstsExamined           26147                       # Number of squashed instructions iterated over during squash; mainly for profiling
system.cpu.iq.iqSquashedInstsIssued               340                       # Number of squashed instructions issued
system.cpu.iq.iqSquashedNonSpecRemoved             51                       # Number of squashed non-spec instructions that were removed
system.cpu.iq.iqSquashedOperandsExamined        29012                       # Number of squashed operands that are examined and possibly removed from graph
system.cpu.iq.issued_per_cycle::samples       6857519                       # Number of insts issued each cycle
system.cpu.iq.issued_per_cycle::mean         3.239412                       # Number of insts issued each cycle
system.cpu.iq.issued_per_cycle::stdev        2.030396                       # Number of insts issued each cycle
system.cpu.iq.issued_per_cycle::underflows            0      0.00%      0.00% # Number of insts issued each cycle
system.cpu.iq.issued_per_cycle::0              665447      9.70%      9.70% # Number of insts issued each cycle
system.cpu.iq.issued_per_cycle::1              865917     12.63%     22.33% # Number of insts issued each cycle
system.cpu.iq.issued_per_cycle::2             1086487     15.84%     38.17% # Number of insts issued each cycle
system.cpu.iq.issued_per_cycle::3             1170771     17.07%     55.25% # Number of insts issued each cycle
system.cpu.iq.issued_per_cycle::4             1194156     17.41%     72.66% # Number of insts issued each cycle
system.cpu.iq.issued_per_cycle::5             1038904     15.15%     87.81% # Number of insts issued each cycle
system.cpu.iq.issued_per_cycle::6              415377      6.06%     93.87% # Number of insts issued each cycle
system.cpu.iq.issued_per_cycle::7              163958      2.39%     96.26% # Number of insts issued each cycle
system.cpu.iq.issued_per_cycle::8              256502      3.74%    100.00% # Number of insts issued each cycle
system.cpu.iq.issued_per_cycle::overflows            0      0.00%    100.00% # Number of insts issued each cycle
system.cpu.iq.issued_per_cycle::min_value            0                       # Number of insts issued each cycle
system.cpu.iq.issued_per_cycle::max_value            8                       # Number of insts issued each cycle
system.cpu.iq.issued_per_cycle::total         6857519                       # Number of insts issued each cycle
system.cpu.iq.rate                           3.232320                       # Inst issue rate
system.cpu.iq.vec_alu_accesses                      0                       # Number of vector alu accesses
system.cpu.iq.vec_inst_queue_reads                  0                       # Number of vector instruction queue reads
system.cpu.iq.vec_inst_queue_wakeup_accesses            0                       # Number of vector instruction queue wakeup accesses
system.cpu.iq.vec_inst_queue_writes                 0                       # Number of vector instruction queue writes
system.cpu.itb.rdAccesses                           0                       # TLB accesses on read requests
system.cpu.itb.rdMisses                             0                       # TLB misses on read requests
system.cpu.itb.wrAccesses                     1642612                       # TLB accesses on write requests
system.cpu.itb.wrMisses                            49                       # TLB misses on write requests
system.cpu.memDep0.conflictingLoads           2096962                       # Number of conflicting loads.
system.cpu.memDep0.conflictingStores          2085883                       # Number of conflicting stores.
system.cpu.memDep0.insertedLoads              4527060                       # Number of loads inserted to the mem dependence unit.
system.cpu.memDep0.insertedStores             2100286                       # Number of stores inserted to the mem dependence unit.
system.cpu.misc_regfile_reads                 7316281                       # number of misc regfile reads
system.cpu.misc_regfile_writes                      1                       # number of misc regfile writes
system.cpu.numCycles                          6872566                       # number of cpu cycles simulated
system.cpu.numWorkItemsCompleted                    0                       # number of work items this cpu completed
system.cpu.numWorkItemsStarted                      0                       # number of work items this cpu started
system.cpu.rename.BlockCycles                  103330                       # Number of cycles rename is blocking
system.cpu.rename.CommittedMaps              21379131                       # Number of HB maps that are committed
system.cpu.rename.IQFullEvents                 309891                       # Number of times rename has blocked due to IQ full
system.cpu.rename.IdleCycles                  1050662                       # Number of cycles rename is idle
system.cpu.rename.LQFullEvents                2806207                       # Number of times rename has blocked due to LQ full
system.cpu.rename.ROBFullEvents                   270                       # Number of times rename has blocked due to ROB full
system.cpu.rename.RenameLookups              48014300                       # Number of register rename lookups that rename has made
system.cpu.rename.RenamedInsts               22133974                       # Number of instructions processed by rename
system.cpu.rename.RenamedOperands            21414816                       # Number of destination operands rename has renamed
system.cpu.rename.RunCycles                   2330072                       # Number of cycles rename is running
system.cpu.rename.SQFullEvents                   3215                       # Number of times rename has blocked due to SQ full
system.cpu.rename.SquashCycles                    950                       # Number of cycles rename is squashing
system.cpu.rename.UnblockCycles               3371357                       # Number of cycles rename is unblocking
system.cpu.rename.UndoneMaps                    35685                       # Number of HB maps that are undone due to squashing
system.cpu.rename.fp_rename_lookups          14688993                       # Number of floating rename lookups
system.cpu.rename.int_rename_lookups         24610516                       # Number of integer rename lookups
system.cpu.rename.serializeStallCycles           1148                       # count of cycles rename stalled for serializing inst
system.cpu.rename.serializingInsts                 21                       # count of serializing insts renamed
system.cpu.rename.skidInsts                   6780464                       # count of insts added to the skid buffer
system.cpu.rename.tempSerializingInsts             16                       # count of temporary serializing insts renamed
system.cpu.rob.rob_reads                     26904770                       # The number of ROB reads
system.cpu.rob.rob_writes                    44254124                       # The number of ROB writes
system.cpu.timesIdled                             189                       # Number of times that the entire CPU went into an idle state and unscheduled itself
system.cpu.workload.numSyscalls                     7                       # Number of system calls
system.l2bus.snoop_filter.hit_multi_requests            1                       # Number of requests hitting in the snoop filter with multiple (>1) holders of the requested data.
system.l2bus.snoop_filter.hit_multi_snoops            0                       # Number of snoops hitting in the snoop filter with multiple (>1) holders of the requested data.
system.l2bus.snoop_filter.hit_single_requests         7907                       # Number of requests hitting in the snoop filter with a single holder of the requested data.
system.l2bus.snoop_filter.hit_single_snoops            0                       # Number of snoops hitting in the snoop filter with a single holder of the requested data.
system.l2bus.snoop_filter.tot_requests          18186                       # Total number of requests made to the snoop filter.
system.l2bus.snoop_filter.tot_snoops                0                       # Total number of snoops made to the snoop filter.
system.membus.snoop_filter.hit_multi_requests            0                       # Number of requests hitting in the snoop filter with multiple (>1) holders of the requested data.
system.membus.snoop_filter.hit_multi_snoops            0                       # Number of snoops hitting in the snoop filter with multiple (>1) holders of the requested data.
system.membus.snoop_filter.hit_single_requests            0                       # Number of requests hitting in the snoop filter with a single holder of the requested data.
system.membus.snoop_filter.hit_single_snoops            0                       # Number of snoops hitting in the snoop filter with a single holder of the requested data.
system.membus.snoop_filter.tot_requests          3568                       # Total number of requests made to the snoop filter.
system.membus.snoop_filter.tot_snoops               0                       # Total number of snoops made to the snoop filter.
system.membus.pwrStateResidencyTicks::UNDEFINED   6872565000                       # Cumulative time (in ticks) in various power states
system.membus.trans_dist::ReadResp               3477                       # Transaction distribution
system.membus.trans_dist::ReadExReq                91                       # Transaction distribution
system.membus.trans_dist::ReadExResp               91                       # Transaction distribution
system.membus.trans_dist::ReadSharedReq          3477                       # Transaction distribution
system.membus.pkt_count_system.l2cache.mem_side::system.mem_ctrl.port         7136                       # Packet count per connected master and slave (bytes)
system.membus.pkt_count_system.l2cache.mem_side::total         7136                       # Packet count per connected master and slave (bytes)
system.membus.pkt_count::total                   7136                       # Packet count per connected master and slave (bytes)
system.membus.pkt_size_system.l2cache.mem_side::system.mem_ctrl.port       228352                       # Cumulative packet size per connected master and slave (bytes)
system.membus.pkt_size_system.l2cache.mem_side::total       228352                       # Cumulative packet size per connected master and slave (bytes)
system.membus.pkt_size::total                  228352                       # Cumulative packet size per connected master and slave (bytes)
system.membus.snoops                                0                       # Total snoops (count)
system.membus.snoopTraffic                          0                       # Total snoop traffic (bytes)
system.membus.snoop_fanout::samples              3568                       # Request fanout histogram
system.membus.snoop_fanout::mean                    0                       # Request fanout histogram
system.membus.snoop_fanout::stdev                   0                       # Request fanout histogram
system.membus.snoop_fanout::underflows              0      0.00%      0.00% # Request fanout histogram
system.membus.snoop_fanout::0                    3568    100.00%    100.00% # Request fanout histogram
system.membus.snoop_fanout::1                       0      0.00%    100.00% # Request fanout histogram
system.membus.snoop_fanout::overflows               0      0.00%    100.00% # Request fanout histogram
system.membus.snoop_fanout::min_value               0                       # Request fanout histogram
system.membus.snoop_fanout::max_value               0                       # Request fanout histogram
system.membus.snoop_fanout::total                3568                       # Request fanout histogram
system.membus.reqLayer2.occupancy             3568000                       # Layer occupancy (ticks)
system.membus.reqLayer2.utilization               0.1                       # Layer utilization (%)
system.membus.respLayer0.occupancy           17843500                       # Layer occupancy (ticks)
system.membus.respLayer0.utilization              0.3                       # Layer utilization (%)
system.l2bus.pwrStateResidencyTicks::UNDEFINED   6872565000                       # Cumulative time (in ticks) in various power states
system.l2bus.trans_dist::ReadResp               10170                       # Transaction distribution
system.l2bus.trans_dist::WritebackDirty           473                       # Transaction distribution
system.l2bus.trans_dist::CleanEvict              7434                       # Transaction distribution
system.l2bus.trans_dist::ReadExReq                108                       # Transaction distribution
system.l2bus.trans_dist::ReadExResp               108                       # Transaction distribution
system.l2bus.trans_dist::ReadSharedReq          10171                       # Transaction distribution
system.l2bus.pkt_count_system.cpu.icache.mem_side::system.l2cache.cpu_side          647                       # Packet count per connected master and slave (bytes)
system.l2bus.pkt_count_system.cpu.dcache.mem_side::system.l2cache.cpu_side        27817                       # Packet count per connected master and slave (bytes)
system.l2bus.pkt_count::total                   28464                       # Packet count per connected master and slave (bytes)
system.l2bus.pkt_size_system.cpu.icache.mem_side::system.l2cache.cpu_side        20672                       # Cumulative packet size per connected master and slave (bytes)
system.l2bus.pkt_size_system.cpu.dcache.mem_side::system.l2cache.cpu_side       667392                       # Cumulative packet size per connected master and slave (bytes)
system.l2bus.pkt_size::total                   688064                       # Cumulative packet size per connected master and slave (bytes)
system.l2bus.snoops                                 0                       # Total snoops (count)
system.l2bus.snoopTraffic                           0                       # Total snoop traffic (bytes)
system.l2bus.snoop_fanout::samples              10279                       # Request fanout histogram
system.l2bus.snoop_fanout::mean              0.000097                       # Request fanout histogram
system.l2bus.snoop_fanout::stdev             0.009863                       # Request fanout histogram
system.l2bus.snoop_fanout::underflows               0      0.00%      0.00% # Request fanout histogram
system.l2bus.snoop_fanout::0                    10278     99.99%     99.99% # Request fanout histogram
system.l2bus.snoop_fanout::1                        1      0.01%    100.00% # Request fanout histogram
system.l2bus.snoop_fanout::2                        0      0.00%    100.00% # Request fanout histogram
system.l2bus.snoop_fanout::overflows                0      0.00%    100.00% # Request fanout histogram
system.l2bus.snoop_fanout::min_value                0                       # Request fanout histogram
system.l2bus.snoop_fanout::max_value                1                       # Request fanout histogram
system.l2bus.snoop_fanout::total                10279                       # Request fanout histogram
system.l2bus.respLayer1.occupancy            29865000                       # Layer occupancy (ticks)
system.l2bus.respLayer1.utilization               0.4                       # Layer utilization (%)
system.l2bus.reqLayer0.occupancy             19132000                       # Layer occupancy (ticks)
system.l2bus.reqLayer0.utilization                0.3                       # Layer utilization (%)
system.l2bus.respLayer0.occupancy              969000                       # Layer occupancy (ticks)
system.l2bus.respLayer0.utilization               0.0                       # Layer utilization (%)
system.clk_domain.clock                          1000                       # Clock period in ticks
system.clk_domain.voltage_domain.voltage            1                       # Voltage in Volts
system.cpu.pwrStateResidencyTicks::ON      6872565000                       # Cumulative time (in ticks) in various power states
system.cpu.icache.pwrStateResidencyTicks::UNDEFINED   6872565000                       # Cumulative time (in ticks) in various power states
system.cpu.icache.demand_hits::.cpu.inst      1642168                       # number of demand (read+write) hits
system.cpu.icache.demand_hits::total          1642168                       # number of demand (read+write) hits
system.cpu.icache.overall_hits::.cpu.inst      1642168                       # number of overall hits
system.cpu.icache.overall_hits::total         1642168                       # number of overall hits
system.cpu.icache.demand_misses::.cpu.inst          427                       # number of demand (read+write) misses
system.cpu.icache.demand_misses::total            427                       # number of demand (read+write) misses
system.cpu.icache.overall_misses::.cpu.inst          427                       # number of overall misses
system.cpu.icache.overall_misses::total           427                       # number of overall misses
system.cpu.icache.demand_miss_latency::.cpu.inst     44303000                       # number of demand (read+write) miss cycles
system.cpu.icache.demand_miss_latency::total     44303000                       # number of demand (read+write) miss cycles
system.cpu.icache.overall_miss_latency::.cpu.inst     44303000                       # number of overall miss cycles
system.cpu.icache.overall_miss_latency::total     44303000                       # number of overall miss cycles
system.cpu.icache.demand_accesses::.cpu.inst      1642595                       # number of demand (read+write) accesses
system.cpu.icache.demand_accesses::total      1642595                       # number of demand (read+write) accesses
system.cpu.icache.overall_accesses::.cpu.inst      1642595                       # number of overall (read+write) accesses
system.cpu.icache.overall_accesses::total      1642595                       # number of overall (read+write) accesses
system.cpu.icache.demand_miss_rate::.cpu.inst     0.000260                       # miss rate for demand accesses
system.cpu.icache.demand_miss_rate::total     0.000260                       # miss rate for demand accesses
system.cpu.icache.overall_miss_rate::.cpu.inst     0.000260                       # miss rate for overall accesses
system.cpu.icache.overall_miss_rate::total     0.000260                       # miss rate for overall accesses
system.cpu.icache.demand_avg_miss_latency::.cpu.inst 103754.098361                       # average overall miss latency
system.cpu.icache.demand_avg_miss_latency::total 103754.098361                       # average overall miss latency
system.cpu.icache.overall_avg_miss_latency::.cpu.inst 103754.098361                       # average overall miss latency
system.cpu.icache.overall_avg_miss_latency::total 103754.098361                       # average overall miss latency
system.cpu.icache.blocked_cycles::no_mshrs           70                       # number of cycles access was blocked
system.cpu.icache.blocked_cycles::no_targets            0                       # number of cycles access was blocked
system.cpu.icache.blocked::no_mshrs                 2                       # number of cycles access was blocked
system.cpu.icache.blocked::no_targets               0                       # number of cycles access was blocked
system.cpu.icache.avg_blocked_cycles::no_mshrs           35                       # average number of cycles each access was blocked
system.cpu.icache.avg_blocked_cycles::no_targets          nan                       # average number of cycles each access was blocked
system.cpu.icache.demand_mshr_hits::.cpu.inst          103                       # number of demand (read+write) MSHR hits
system.cpu.icache.demand_mshr_hits::total          103                       # number of demand (read+write) MSHR hits
system.cpu.icache.overall_mshr_hits::.cpu.inst          103                       # number of overall MSHR hits
system.cpu.icache.overall_mshr_hits::total          103                       # number of overall MSHR hits
system.cpu.icache.demand_mshr_misses::.cpu.inst          324                       # number of demand (read+write) MSHR misses
system.cpu.icache.demand_mshr_misses::total          324                       # number of demand (read+write) MSHR misses
system.cpu.icache.overall_mshr_misses::.cpu.inst          324                       # number of overall MSHR misses
system.cpu.icache.overall_mshr_misses::total          324                       # number of overall MSHR misses
system.cpu.icache.demand_mshr_miss_latency::.cpu.inst     35677000                       # number of demand (read+write) MSHR miss cycles
system.cpu.icache.demand_mshr_miss_latency::total     35677000                       # number of demand (read+write) MSHR miss cycles
system.cpu.icache.overall_mshr_miss_latency::.cpu.inst     35677000                       # number of overall MSHR miss cycles
system.cpu.icache.overall_mshr_miss_latency::total     35677000                       # number of overall MSHR miss cycles
system.cpu.icache.demand_mshr_miss_rate::.cpu.inst     0.000197                       # mshr miss rate for demand accesses
system.cpu.icache.demand_mshr_miss_rate::total     0.000197                       # mshr miss rate for demand accesses
system.cpu.icache.overall_mshr_miss_rate::.cpu.inst     0.000197                       # mshr miss rate for overall accesses
system.cpu.icache.overall_mshr_miss_rate::total     0.000197                       # mshr miss rate for overall accesses
system.cpu.icache.demand_avg_mshr_miss_latency::.cpu.inst 110114.197531                       # average overall mshr miss latency
system.cpu.icache.demand_avg_mshr_miss_latency::total 110114.197531                       # average overall mshr miss latency
system.cpu.icache.overall_avg_mshr_miss_latency::.cpu.inst 110114.197531                       # average overall mshr miss latency
system.cpu.icache.overall_avg_mshr_miss_latency::total 110114.197531                       # average overall mshr miss latency
system.cpu.icache.replacements                      0                       # number of replacements
system.cpu.icache.ReadReq_hits::.cpu.inst      1642168                       # number of ReadReq hits
system.cpu.icache.ReadReq_hits::total         1642168                       # number of ReadReq hits
system.cpu.icache.ReadReq_misses::.cpu.inst          427                       # number of ReadReq misses
system.cpu.icache.ReadReq_misses::total           427                       # number of ReadReq misses
system.cpu.icache.ReadReq_miss_latency::.cpu.inst     44303000                       # number of ReadReq miss cycles
system.cpu.icache.ReadReq_miss_latency::total     44303000                       # number of ReadReq miss cycles
system.cpu.icache.ReadReq_accesses::.cpu.inst      1642595                       # number of ReadReq accesses(hits+misses)
system.cpu.icache.ReadReq_accesses::total      1642595                       # number of ReadReq accesses(hits+misses)
system.cpu.icache.ReadReq_miss_rate::.cpu.inst     0.000260                       # miss rate for ReadReq accesses
system.cpu.icache.ReadReq_miss_rate::total     0.000260                       # miss rate for ReadReq accesses
system.cpu.icache.ReadReq_avg_miss_latency::.cpu.inst 103754.098361                       # average ReadReq miss latency
system.cpu.icache.ReadReq_avg_miss_latency::total 103754.098361                       # average ReadReq miss latency
system.cpu.icache.ReadReq_mshr_hits::.cpu.inst          103                       # number of ReadReq MSHR hits
system.cpu.icache.ReadReq_mshr_hits::total          103                       # number of ReadReq MSHR hits
system.cpu.icache.ReadReq_mshr_misses::.cpu.inst          324                       # number of ReadReq MSHR misses
system.cpu.icache.ReadReq_mshr_misses::total          324                       # number of ReadReq MSHR misses
system.cpu.icache.ReadReq_mshr_miss_latency::.cpu.inst     35677000                       # number of ReadReq MSHR miss cycles
system.cpu.icache.ReadReq_mshr_miss_latency::total     35677000                       # number of ReadReq MSHR miss cycles
system.cpu.icache.ReadReq_mshr_miss_rate::.cpu.inst     0.000197                       # mshr miss rate for ReadReq accesses
system.cpu.icache.ReadReq_mshr_miss_rate::total     0.000197                       # mshr miss rate for ReadReq accesses
system.cpu.icache.ReadReq_avg_mshr_miss_latency::.cpu.inst 110114.197531                       # average ReadReq mshr miss latency
system.cpu.icache.ReadReq_avg_mshr_miss_latency::total 110114.197531                       # average ReadReq mshr miss latency
system.cpu.icache.tags.pwrStateResidencyTicks::UNDEFINED   6872565000                       # Cumulative time (in ticks) in various power states
system.cpu.icache.tags.tagsinuse           299.226885                       # Cycle average of tags in use
system.cpu.icache.tags.total_refs             1642491                       # Total number of references to valid blocks.
system.cpu.icache.tags.sampled_refs               323                       # Sample count of references to valid blocks.
system.cpu.icache.tags.avg_refs           5085.111455                       # Average number of references to valid blocks.
system.cpu.icache.tags.warmup_cycle            112000                       # Cycle when the warmup percentage was hit.
system.cpu.icache.tags.occ_blocks::.cpu.inst   299.226885                       # Average occupied blocks per requestor
system.cpu.icache.tags.occ_percent::.cpu.inst     0.146107                       # Average percentage of cache occupancy
system.cpu.icache.tags.occ_percent::total     0.146107                       # Average percentage of cache occupancy
system.cpu.icache.tags.occ_task_id_blocks::1024          323                       # Occupied blocks per task id
system.cpu.icache.tags.age_task_id_blocks_1024::0           23                       # Occupied blocks per task id
system.cpu.icache.tags.age_task_id_blocks_1024::3          300                       # Occupied blocks per task id
system.cpu.icache.tags.occ_task_id_percent::1024     0.157715                       # Percentage of cache occupancy per task id
system.cpu.icache.tags.tag_accesses           3285513                       # Number of tag accesses
system.cpu.icache.tags.data_accesses          3285513                       # Number of data accesses
system.cpu.dtb.walker.pwrStateResidencyTicks::UNDEFINED   6872565000                       # Cumulative time (in ticks) in various power states
system.cpu.interrupts.clk_domain.clock          16000                       # Clock period in ticks
system.cpu.itb.walker.pwrStateResidencyTicks::UNDEFINED   6872565000                       # Cumulative time (in ticks) in various power states
system.cpu.dcache.pwrStateResidencyTicks::UNDEFINED   6872565000                       # Cumulative time (in ticks) in various power states
system.cpu.dcache.demand_hits::.cpu.data      6856487                       # number of demand (read+write) hits
system.cpu.dcache.demand_hits::total          6856487                       # number of demand (read+write) hits
system.cpu.dcache.overall_hits::.cpu.data      6856487                       # number of overall hits
system.cpu.dcache.overall_hits::total         6856487                       # number of overall hits
system.cpu.dcache.demand_misses::.cpu.data        29114                       # number of demand (read+write) misses
system.cpu.dcache.demand_misses::total          29114                       # number of demand (read+write) misses
system.cpu.dcache.overall_misses::.cpu.data        29114                       # number of overall misses
system.cpu.dcache.overall_misses::total         29114                       # number of overall misses
system.cpu.dcache.demand_miss_latency::.cpu.data   1098951999                       # number of demand (read+write) miss cycles
system.cpu.dcache.demand_miss_latency::total   1098951999                       # number of demand (read+write) miss cycles
system.cpu.dcache.overall_miss_latency::.cpu.data   1098951999                       # number of overall miss cycles
system.cpu.dcache.overall_miss_latency::total   1098951999                       # number of overall miss cycles
system.cpu.dcache.demand_accesses::.cpu.data      6885601                       # number of demand (read+write) accesses
system.cpu.dcache.demand_accesses::total      6885601                       # number of demand (read+write) accesses
system.cpu.dcache.overall_accesses::.cpu.data      6885601                       # number of overall (read+write) accesses
system.cpu.dcache.overall_accesses::total      6885601                       # number of overall (read+write) accesses
system.cpu.dcache.demand_miss_rate::.cpu.data     0.004228                       # miss rate for demand accesses
system.cpu.dcache.demand_miss_rate::total     0.004228                       # miss rate for demand accesses
system.cpu.dcache.overall_miss_rate::.cpu.data     0.004228                       # miss rate for overall accesses
system.cpu.dcache.overall_miss_rate::total     0.004228                       # miss rate for overall accesses
system.cpu.dcache.demand_avg_miss_latency::.cpu.data 37746.513670                       # average overall miss latency
system.cpu.dcache.demand_avg_miss_latency::total 37746.513670                       # average overall miss latency
system.cpu.dcache.overall_avg_miss_latency::.cpu.data 37746.513670                       # average overall miss latency
system.cpu.dcache.overall_avg_miss_latency::total 37746.513670                       # average overall miss latency
system.cpu.dcache.blocked_cycles::no_mshrs          800                       # number of cycles access was blocked
system.cpu.dcache.blocked_cycles::no_targets            0                       # number of cycles access was blocked
system.cpu.dcache.blocked::no_mshrs                75                       # number of cycles access was blocked
system.cpu.dcache.blocked::no_targets               0                       # number of cycles access was blocked
system.cpu.dcache.avg_blocked_cycles::no_mshrs    10.666667                       # average number of cycles each access was blocked
system.cpu.dcache.avg_blocked_cycles::no_targets          nan                       # average number of cycles each access was blocked
system.cpu.dcache.writebacks::.writebacks          473                       # number of writebacks
system.cpu.dcache.writebacks::total               473                       # number of writebacks
system.cpu.dcache.demand_mshr_hits::.cpu.data        19159                       # number of demand (read+write) MSHR hits
system.cpu.dcache.demand_mshr_hits::total        19159                       # number of demand (read+write) MSHR hits
system.cpu.dcache.overall_mshr_hits::.cpu.data        19159                       # number of overall MSHR hits
system.cpu.dcache.overall_mshr_hits::total        19159                       # number of overall MSHR hits
system.cpu.dcache.demand_mshr_misses::.cpu.data         9955                       # number of demand (read+write) MSHR misses
system.cpu.dcache.demand_mshr_misses::total         9955                       # number of demand (read+write) MSHR misses
system.cpu.dcache.overall_mshr_misses::.cpu.data         9955                       # number of overall MSHR misses
system.cpu.dcache.overall_mshr_misses::total         9955                       # number of overall MSHR misses
system.cpu.dcache.demand_mshr_miss_latency::.cpu.data    547530999                       # number of demand (read+write) MSHR miss cycles
system.cpu.dcache.demand_mshr_miss_latency::total    547530999                       # number of demand (read+write) MSHR miss cycles
system.cpu.dcache.overall_mshr_miss_latency::.cpu.data    547530999                       # number of overall MSHR miss cycles
system.cpu.dcache.overall_mshr_miss_latency::total    547530999                       # number of overall MSHR miss cycles
system.cpu.dcache.demand_mshr_miss_rate::.cpu.data     0.001446                       # mshr miss rate for demand accesses
system.cpu.dcache.demand_mshr_miss_rate::total     0.001446                       # mshr miss rate for demand accesses
system.cpu.dcache.overall_mshr_miss_rate::.cpu.data     0.001446                       # mshr miss rate for overall accesses
system.cpu.dcache.overall_mshr_miss_rate::total     0.001446                       # mshr miss rate for overall accesses
system.cpu.dcache.demand_avg_mshr_miss_latency::.cpu.data 55000.602612                       # average overall mshr miss latency
system.cpu.dcache.demand_avg_mshr_miss_latency::total 55000.602612                       # average overall mshr miss latency
system.cpu.dcache.overall_avg_mshr_miss_latency::.cpu.data 55000.602612                       # average overall mshr miss latency
system.cpu.dcache.overall_avg_mshr_miss_latency::total 55000.602612                       # average overall mshr miss latency
system.cpu.dcache.replacements                   7907                       # number of replacements
system.cpu.dcache.ReadReq_hits::.cpu.data      4758126                       # number of ReadReq hits
system.cpu.dcache.ReadReq_hits::total         4758126                       # number of ReadReq hits
system.cpu.dcache.ReadReq_misses::.cpu.data        28978                       # number of ReadReq misses
system.cpu.dcache.ReadReq_misses::total         28978                       # number of ReadReq misses
system.cpu.dcache.ReadReq_miss_latency::.cpu.data   1085385000                       # number of ReadReq miss cycles
system.cpu.dcache.ReadReq_miss_latency::total   1085385000                       # number of ReadReq miss cycles
system.cpu.dcache.ReadReq_accesses::.cpu.data      4787104                       # number of ReadReq accesses(hits+misses)
system.cpu.dcache.ReadReq_accesses::total      4787104                       # number of ReadReq accesses(hits+misses)
system.cpu.dcache.ReadReq_miss_rate::.cpu.data     0.006053                       # miss rate for ReadReq accesses
system.cpu.dcache.ReadReq_miss_rate::total     0.006053                       # miss rate for ReadReq accesses
system.cpu.dcache.ReadReq_avg_miss_latency::.cpu.data 37455.483470                       # average ReadReq miss latency
system.cpu.dcache.ReadReq_avg_miss_latency::total 37455.483470                       # average ReadReq miss latency
system.cpu.dcache.ReadReq_mshr_hits::.cpu.data        19120                       # number of ReadReq MSHR hits
system.cpu.dcache.ReadReq_mshr_hits::total        19120                       # number of ReadReq MSHR hits
system.cpu.dcache.ReadReq_mshr_misses::.cpu.data         9858                       # number of ReadReq MSHR misses
system.cpu.dcache.ReadReq_mshr_misses::total         9858                       # number of ReadReq MSHR misses
system.cpu.dcache.ReadReq_mshr_miss_latency::.cpu.data    536433000                       # number of ReadReq MSHR miss cycles
system.cpu.dcache.ReadReq_mshr_miss_latency::total    536433000                       # number of ReadReq MSHR miss cycles
system.cpu.dcache.ReadReq_mshr_miss_rate::.cpu.data     0.002059                       # mshr miss rate for ReadReq accesses
system.cpu.dcache.ReadReq_mshr_miss_rate::total     0.002059                       # mshr miss rate for ReadReq accesses
system.cpu.dcache.ReadReq_avg_mshr_miss_latency::.cpu.data 54416.007304                       # average ReadReq mshr miss latency
system.cpu.dcache.ReadReq_avg_mshr_miss_latency::total 54416.007304                       # average ReadReq mshr miss latency
system.cpu.dcache.WriteReq_hits::.cpu.data      2098361                       # number of WriteReq hits
system.cpu.dcache.WriteReq_hits::total        2098361                       # number of WriteReq hits
system.cpu.dcache.WriteReq_misses::.cpu.data          136                       # number of WriteReq misses
system.cpu.dcache.WriteReq_misses::total          136                       # number of WriteReq misses
system.cpu.dcache.WriteReq_miss_latency::.cpu.data     13566999                       # number of WriteReq miss cycles
system.cpu.dcache.WriteReq_miss_latency::total     13566999                       # number of WriteReq miss cycles
system.cpu.dcache.WriteReq_accesses::.cpu.data      2098497                       # number of WriteReq accesses(hits+misses)
system.cpu.dcache.WriteReq_accesses::total      2098497                       # number of WriteReq accesses(hits+misses)
system.cpu.dcache.WriteReq_miss_rate::.cpu.data     0.000065                       # miss rate for WriteReq accesses
system.cpu.dcache.WriteReq_miss_rate::total     0.000065                       # miss rate for WriteReq accesses
system.cpu.dcache.WriteReq_avg_miss_latency::.cpu.data 99757.345588                       # average WriteReq miss latency
system.cpu.dcache.WriteReq_avg_miss_latency::total 99757.345588                       # average WriteReq miss latency
system.cpu.dcache.WriteReq_mshr_hits::.cpu.data           39                       # number of WriteReq MSHR hits
system.cpu.dcache.WriteReq_mshr_hits::total           39                       # number of WriteReq MSHR hits
system.cpu.dcache.WriteReq_mshr_misses::.cpu.data           97                       # number of WriteReq MSHR misses
system.cpu.dcache.WriteReq_mshr_misses::total           97                       # number of WriteReq MSHR misses
system.cpu.dcache.WriteReq_mshr_miss_latency::.cpu.data     11097999                       # number of WriteReq MSHR miss cycles
system.cpu.dcache.WriteReq_mshr_miss_latency::total     11097999                       # number of WriteReq MSHR miss cycles
system.cpu.dcache.WriteReq_mshr_miss_rate::.cpu.data     0.000046                       # mshr miss rate for WriteReq accesses
system.cpu.dcache.WriteReq_mshr_miss_rate::total     0.000046                       # mshr miss rate for WriteReq accesses
system.cpu.dcache.WriteReq_avg_mshr_miss_latency::.cpu.data 114412.360825                       # average WriteReq mshr miss latency
system.cpu.dcache.WriteReq_avg_mshr_miss_latency::total 114412.360825                       # average WriteReq mshr miss latency
system.cpu.dcache.tags.pwrStateResidencyTicks::UNDEFINED   6872565000                       # Cumulative time (in ticks) in various power states
system.cpu.dcache.tags.tagsinuse          1672.233830                       # Cycle average of tags in use
system.cpu.dcache.tags.total_refs             6866442                       # Total number of references to valid blocks.
system.cpu.dcache.tags.sampled_refs              9955                       # Sample count of references to valid blocks.
system.cpu.dcache.tags.avg_refs            689.748066                       # Average number of references to valid blocks.
system.cpu.dcache.tags.warmup_cycle            232000                       # Cycle when the warmup percentage was hit.
system.cpu.dcache.tags.occ_blocks::.cpu.data  1672.233830                       # Average occupied blocks per requestor
system.cpu.dcache.tags.occ_percent::.cpu.data     0.816520                       # Average percentage of cache occupancy
system.cpu.dcache.tags.occ_percent::total     0.816520                       # Average percentage of cache occupancy
system.cpu.dcache.tags.occ_task_id_blocks::1024         2048                       # Occupied blocks per task id
system.cpu.dcache.tags.age_task_id_blocks_1024::0           46                       # Occupied blocks per task id
system.cpu.dcache.tags.age_task_id_blocks_1024::1          141                       # Occupied blocks per task id
system.cpu.dcache.tags.age_task_id_blocks_1024::2          302                       # Occupied blocks per task id
system.cpu.dcache.tags.age_task_id_blocks_1024::3         1559                       # Occupied blocks per task id
system.cpu.dcache.tags.occ_task_id_percent::1024            1                       # Percentage of cache occupancy per task id
system.cpu.dcache.tags.tag_accesses          13781157                       # Number of tag accesses
system.cpu.dcache.tags.data_accesses         13781157                       # Number of data accesses
system.l2cache.pwrStateResidencyTicks::UNDEFINED   6872565000                       # Cumulative time (in ticks) in various power states
system.l2cache.demand_hits::.cpu.inst               1                       # number of demand (read+write) hits
system.l2cache.demand_hits::.cpu.data            6709                       # number of demand (read+write) hits
system.l2cache.demand_hits::total                6710                       # number of demand (read+write) hits
system.l2cache.overall_hits::.cpu.inst              1                       # number of overall hits
system.l2cache.overall_hits::.cpu.data           6709                       # number of overall hits
system.l2cache.overall_hits::total               6710                       # number of overall hits
system.l2cache.demand_misses::.cpu.inst           323                       # number of demand (read+write) misses
system.l2cache.demand_misses::.cpu.data          3246                       # number of demand (read+write) misses
system.l2cache.demand_misses::total              3569                       # number of demand (read+write) misses
system.l2cache.overall_misses::.cpu.inst          323                       # number of overall misses
system.l2cache.overall_misses::.cpu.data         3246                       # number of overall misses
system.l2cache.overall_misses::total             3569                       # number of overall misses
system.l2cache.demand_miss_latency::.cpu.inst     34683000                       # number of demand (read+write) miss cycles
system.l2cache.demand_miss_latency::.cpu.data    367738000                       # number of demand (read+write) miss cycles
system.l2cache.demand_miss_latency::total    402421000                       # number of demand (read+write) miss cycles
system.l2cache.overall_miss_latency::.cpu.inst     34683000                       # number of overall miss cycles
system.l2cache.overall_miss_latency::.cpu.data    367738000                       # number of overall miss cycles
system.l2cache.overall_miss_latency::total    402421000                       # number of overall miss cycles
system.l2cache.demand_accesses::.cpu.inst          324                       # number of demand (read+write) accesses
[...]
system.mem_ctrl.readPktSize::3                      0                       # Read request sizes (log2)
system.mem_ctrl.readPktSize::4                      0                       # Read request sizes (log2)
system.mem_ctrl.readPktSize::5                   7136                       # Read request sizes (log2)
system.mem_ctrl.writePktSize::0                     0                       # Write request sizes (log2)
system.mem_ctrl.writePktSize::1                     0                       # Write request sizes (log2)
system.mem_ctrl.writePktSize::2                     0                       # Write request sizes (log2)
system.mem_ctrl.writePktSize::3                     0                       # Write request sizes (log2)
system.mem_ctrl.writePktSize::4                     0                       # Write request sizes (log2)
system.mem_ctrl.writePktSize::5                     0                       # Write request sizes (log2)
system.mem_ctrl.rdQLenPdf::0                     2928                       # What read queue length does an incoming req see
system.mem_ctrl.rdQLenPdf::1                     2964                       # What read queue length does an incoming req see
system.mem_ctrl.rdQLenPdf::2                      581                       # What read queue length does an incoming req see
system.mem_ctrl.rdQLenPdf::3                      551                       # What read queue length does an incoming req see
system.mem_ctrl.rdQLenPdf::4                       48                       # What read queue length does an incoming req see
system.mem_ctrl.rdQLenPdf::5                       43                       # What read queue length does an incoming req see
system.mem_ctrl.rdQLenPdf::6                       10                       # What read queue length does an incoming req see
system.mem_ctrl.rdQLenPdf::7                        9                       # What read queue length does an incoming req see
system.mem_ctrl.rdQLenPdf::8                        1                       # What read queue length does an incoming req see
system.mem_ctrl.rdQLenPdf::9                        1                       # What read queue length does an incoming req see
system.mem_ctrl.rdQLenPdf::10                       0                       # What read queue length does an incoming req see
system.mem_ctrl.rdQLenPdf::11                       0                       # What read queue length does an incoming req see
system.mem_ctrl.rdQLenPdf::12                       0                       # What read queue length does an incoming req see
system.mem_ctrl.rdQLenPdf::13                       0                       # What read queue length does an incoming req see
system.mem_ctrl.rdQLenPdf::14                       0                       # What read queue length does an incoming req see
system.mem_ctrl.rdQLenPdf::15                       0                       # What read queue length does an incoming req see
system.mem_ctrl.rdQLenPdf::16                       0                       # What read queue length does an incoming req see
system.mem_ctrl.rdQLenPdf::17                       0                       # What read queue length does an incoming req see
system.mem_ctrl.rdQLenPdf::18                       0                       # What read queue length does an incoming req see
system.mem_ctrl.rdQLenPdf::19                       0                       # What read queue length does an incoming req see
system.mem_ctrl.rdQLenPdf::20                       0                       # What read queue length does an incoming req see
system.mem_ctrl.rdQLenPdf::21                       0                       # What read queue length does an incoming req see
system.mem_ctrl.rdQLenPdf::22                       0                       # What read queue length does an incoming req see
system.mem_ctrl.rdQLenPdf::23                       0                       # What read queue length does an incoming req see
system.mem_ctrl.rdQLenPdf::24                       0                       # What read queue length does an incoming req see
system.mem_ctrl.rdQLenPdf::25                       0                       # What read queue length does an incoming req see
system.mem_ctrl.rdQLenPdf::26                       0                       # What read queue length does an incoming req see
system.mem_ctrl.rdQLenPdf::27                       0                       # What read queue length does an incoming req see
system.mem_ctrl.rdQLenPdf::28                       0                       # What read queue length does an incoming req see
system.mem_ctrl.rdQLenPdf::29                       0                       # What read queue length does an incoming req see
system.mem_ctrl.rdQLenPdf::30                       0                       # What read queue length does an incoming req see
system.mem_ctrl.rdQLenPdf::31                       0                       # What read queue length does an incoming req see
system.mem_ctrl.wrQLenPdf::0                        0                       # What write queue length does an incoming req see
system.mem_ctrl.wrQLenPdf::1                        0                       # What write queue length does an incoming req see
system.mem_ctrl.wrQLenPdf::2                        0                       # What write queue length does an incoming req see
system.mem_ctrl.wrQLenPdf::3                        0                       # What write queue length does an incoming req see
system.mem_ctrl.wrQLenPdf::4                        0                       # What write queue length does an incoming req see
system.mem_ctrl.wrQLenPdf::5                        0                       # What write queue length does an incoming req see
system.mem_ctrl.wrQLenPdf::6                        0                       # What write queue length does an incoming req see
system.mem_ctrl.wrQLenPdf::7                        0                       # What write queue length does an incoming req see
system.mem_ctrl.wrQLenPdf::8                        0                       # What write queue length does an incoming req see
system.mem_ctrl.wrQLenPdf::9                        0                       # What write queue length does an incoming req see
system.mem_ctrl.wrQLenPdf::10                       0                       # What write queue length does an incoming req see
system.mem_ctrl.wrQLenPdf::11                       0                       # What write queue length does an incoming req see
system.mem_ctrl.wrQLenPdf::12                       0                       # What write queue length does an incoming req see
system.mem_ctrl.wrQLenPdf::13                       0                       # What write queue length does an incoming req see
system.mem_ctrl.wrQLenPdf::14                       0                       # What write queue length does an incoming req see
system.mem_ctrl.wrQLenPdf::15                       0                       # What write queue length does an incoming req see
system.mem_ctrl.wrQLenPdf::16                       0                       # What write queue length does an incoming req see
system.mem_ctrl.wrQLenPdf::17                       0                       # What write queue length does an incoming req see
system.mem_ctrl.wrQLenPdf::18                       0                       # What write queue length does an incoming req see
system.mem_ctrl.wrQLenPdf::19                       0                       # What write queue length does an incoming req see
system.mem_ctrl.wrQLenPdf::20                       0                       # What write queue length does an incoming req see
system.mem_ctrl.wrQLenPdf::21                       0                       # What write queue length does an incoming req see
system.mem_ctrl.wrQLenPdf::22                       0                       # What write queue length does an incoming req see
system.mem_ctrl.wrQLenPdf::23                       0                       # What write queue length does an incoming req see
system.mem_ctrl.wrQLenPdf::24                       0                       # What write queue length does an incoming req see
system.mem_ctrl.wrQLenPdf::25                       0                       # What write queue length does an incoming req see
system.mem_ctrl.wrQLenPdf::26                       0                       # What write queue length does an incoming req see
system.mem_ctrl.wrQLenPdf::27                       0                       # What write queue length does an incoming req see
system.mem_ctrl.wrQLenPdf::28                       0                       # What write queue length does an incoming req see
system.mem_ctrl.wrQLenPdf::29                       0                       # What write queue length does an incoming req see
system.mem_ctrl.wrQLenPdf::30                       0                       # What write queue length does an incoming req see
system.mem_ctrl.wrQLenPdf::31                       0                       # What write queue length does an incoming req see
system.mem_ctrl.wrQLenPdf::32                       0                       # What write queue length does an incoming req see
system.mem_ctrl.wrQLenPdf::33                       0                       # What write queue length does an incoming req see
system.mem_ctrl.wrQLenPdf::34                       0                       # What write queue length does an incoming req see
system.mem_ctrl.wrQLenPdf::35                       0                       # What write queue length does an incoming req see
system.mem_ctrl.wrQLenPdf::36                       0                       # What write queue length does an incoming req see
system.mem_ctrl.wrQLenPdf::37                       0                       # What write queue length does an incoming req see
system.mem_ctrl.wrQLenPdf::38                       0                       # What write queue length does an incoming req see
system.mem_ctrl.wrQLenPdf::39                       0                       # What write queue length does an incoming req see
system.mem_ctrl.wrQLenPdf::40                       0                       # What write queue length does an incoming req see
system.mem_ctrl.wrQLenPdf::41                       0                       # What write queue length does an incoming req see
system.mem_ctrl.wrQLenPdf::42                       0                       # What write queue length does an incoming req see
system.mem_ctrl.wrQLenPdf::43                       0                       # What write queue length does an incoming req see
system.mem_ctrl.wrQLenPdf::44                       0                       # What write queue length does an incoming req see
system.mem_ctrl.wrQLenPdf::45                       0                       # What write queue length does an incoming req see
system.mem_ctrl.wrQLenPdf::46                       0                       # What write queue length does an incoming req see
system.mem_ctrl.wrQLenPdf::47                       0                       # What write queue length does an incoming req see
system.mem_ctrl.wrQLenPdf::48                       0                       # What write queue length does an incoming req see
system.mem_ctrl.wrQLenPdf::49                       0                       # What write queue length does an incoming req see
system.mem_ctrl.wrQLenPdf::50                       0                       # What write queue length does an incoming req see
system.mem_ctrl.wrQLenPdf::51                       0                       # What write queue length does an incoming req see
system.mem_ctrl.wrQLenPdf::52                       0                       # What write queue length does an incoming req see
system.mem_ctrl.wrQLenPdf::53                       0                       # What write queue length does an incoming req see
system.mem_ctrl.wrQLenPdf::54                       0                       # What write queue length does an incoming req see
system.mem_ctrl.wrQLenPdf::55                       0                       # What write queue length does an incoming req see
system.mem_ctrl.wrQLenPdf::56                       0                       # What write queue length does an incoming req see
system.mem_ctrl.wrQLenPdf::57                       0                       # What write queue length does an incoming req see
system.mem_ctrl.wrQLenPdf::58                       0                       # What write queue length does an incoming req see
system.mem_ctrl.wrQLenPdf::59                       0                       # What write queue length does an incoming req see
system.mem_ctrl.wrQLenPdf::60                       0                       # What write queue length does an incoming req see
system.mem_ctrl.wrQLenPdf::61                       0                       # What write queue length does an incoming req see
system.mem_ctrl.wrQLenPdf::62                       0                       # What write queue length does an incoming req see
system.mem_ctrl.wrQLenPdf::63                       0                       # What write queue length does an incoming req see
system.mem_ctrl.bytesPerActivate::samples         2009                       # Bytes accessed per row activation
system.mem_ctrl.bytesPerActivate::mean     113.664510                       # Bytes accessed per row activation
system.mem_ctrl.bytesPerActivate::gmean    104.994722                       # Bytes accessed per row activation
system.mem_ctrl.bytesPerActivate::stdev     54.632427                       # Bytes accessed per row activation
system.mem_ctrl.bytesPerActivate::64-127          657     32.70%     32.70% # Bytes accessed per row activation
system.mem_ctrl.bytesPerActivate::128-191         1286     64.01%     96.71% # Bytes accessed per row activation
system.mem_ctrl.bytesPerActivate::192-255           19      0.95%     97.66% # Bytes accessed per row activation
system.mem_ctrl.bytesPerActivate::256-319           14      0.70%     98.36% # Bytes accessed per row activation
system.mem_ctrl.bytesPerActivate::320-383            9      0.45%     98.81% # Bytes accessed per row activation
system.mem_ctrl.bytesPerActivate::384-447            4      0.20%     99.00% # Bytes accessed per row activation
system.mem_ctrl.bytesPerActivate::448-511            3      0.15%     99.15% # Bytes accessed per row activation
system.mem_ctrl.bytesPerActivate::512-575           17      0.85%    100.00% # Bytes accessed per row activation
system.mem_ctrl.bytesPerActivate::total          2009                       # Bytes accessed per row activation
system.mem_ctrl.bytesReadDRAM                  228352                       # Total number of bytes read from DRAM
system.mem_ctrl.bytesReadWrQ                        0                       # Total number of bytes read from write queue
system.mem_ctrl.bytesWritten                        0                       # Total number of bytes written to DRAM
system.mem_ctrl.bytesReadSys                   228352                       # Total read bytes from the system interface side
system.mem_ctrl.bytesWrittenSys                     0                       # Total written bytes from the system interface side
system.mem_ctrl.avgRdBW                         33.23                       # Average DRAM read bandwidth in MiByte/s
system.mem_ctrl.avgWrBW                          0.00                       # Average achieved write bandwidth in MiByte/s
system.mem_ctrl.avgRdBWSys                      33.23                       # Average system read bandwidth in MiByte/s
system.mem_ctrl.avgWrBWSys                       0.00                       # Average system write bandwidth in MiByte/s
system.mem_ctrl.peakBW                        8000.00                       # Theoretical peak bandwidth in MiByte/s
system.mem_ctrl.busUtil                          0.42                       # Data bus utilization in percentage
system.mem_ctrl.busUtilRead                      0.42                       # Data bus utilization in percentage for reads
system.mem_ctrl.busUtilWrite                     0.00                       # Data bus utilization in percentage for writes
system.mem_ctrl.totGap                     6872454000                       # Total gap between requests
system.mem_ctrl.avgGap                     1926136.21                       # Average gap between requests
system.mem_ctrl.masterReadBytes::.cpu.inst        20608                       # Per-master bytes read from memory
system.mem_ctrl.masterReadBytes::.cpu.data       207744                       # Per-master bytes read from memory
system.mem_ctrl.masterReadRate::.cpu.inst 2998589.318544095382                       # Per-master bytes read from memory rate (Bytes/sec)
system.mem_ctrl.masterReadRate::.cpu.data 30228015.304329607636                       # Per-master bytes read from memory rate (Bytes/sec)
system.mem_ctrl.masterReadAccesses::.cpu.inst          644                       # Per-master read serviced memory accesses
system.mem_ctrl.masterReadAccesses::.cpu.data         6492                       # Per-master read serviced memory accesses
system.mem_ctrl.masterReadTotalLat::.cpu.inst     22353000                       # Per-master read total memory access latency
system.mem_ctrl.masterReadTotalLat::.cpu.data    261554000                       # Per-master read total memory access latency
system.mem_ctrl.masterReadAvgLat::.cpu.inst     34709.63                       # Per-master read average memory access latency
system.mem_ctrl.masterReadAvgLat::.cpu.data     40288.66                       # Per-master read average memory access latency
system.mem_ctrl.pageHitRate                     71.85                       # Row buffer hit rate, read and write combined
system.mem_ctrl.rank0.actEnergy                     0                       # Energy for activate commands per rank (pJ)
system.mem_ctrl.rank0.preEnergy                     0                       # Energy for precharge commands per rank (pJ)
system.mem_ctrl.rank0.readEnergy                    0                       # Energy for read commands per rank (pJ)
system.mem_ctrl.rank0.writeEnergy                   0                       # Energy for write commands per rank (pJ)
system.mem_ctrl.rank0.refreshEnergy                 0                       # Energy for refresh commands per rank (pJ)
system.mem_ctrl.rank0.actBackEnergy                 0                       # Energy for active background per rank (pJ)
system.mem_ctrl.rank0.preBackEnergy                 0                       # Energy for precharge background per rank (pJ)
system.mem_ctrl.rank0.actPowerDownEnergy            0                       # Energy for active power-down per rank (pJ)
system.mem_ctrl.rank0.prePowerDownEnergy            0                       # Energy for precharge power-down per rank (pJ)
system.mem_ctrl.rank0.selfRefreshEnergy             0                       # Energy for self refresh per rank (pJ)
system.mem_ctrl.rank0.totalEnergy                   0                       # Total energy per rank (pJ)
system.mem_ctrl.rank0.averagePower                  0                       # Core power per rank (mW)
system.mem_ctrl.rank0.totalIdleTime                 0                       # Total Idle time Per DRAM Rank
system.mem_ctrl.rank0.memoryStateTime::IDLE   5588491000                       # Time in different power states
system.mem_ctrl.rank0.memoryStateTime::REF    459680000                       # Time in different power states
system.mem_ctrl.rank0.memoryStateTime::SREF            0                       # Time in different power states
system.mem_ctrl.rank0.memoryStateTime::PRE_PDN            0                       # Time in different power states
system.mem_ctrl.rank0.memoryStateTime::ACT    824394000                       # Time in different power states
system.mem_ctrl.rank0.memoryStateTime::ACT_PDN            0                       # Time in different power states

---------- End Simulation Statistics   ----------
