
---------- Begin Simulation Statistics ----------
final_tick                                 2463144000                       # Number of ticks from beginning of simulation (restored from checkpoints and never reset)
host_inst_rate                                 162847                       # Simulator instruction rate (inst/s)
host_mem_usage                                 788516                       # Number of bytes of host memory used
host_op_rate                                   267689                       # Simulator op (including micro ops) rate (op/s)
host_seconds                                    17.81                       # Real time elapsed on the host
host_tick_rate                              138297104                       # Simulator tick rate (ticks/s)
sim_freq                                 1000000000000                       # Frequency of simulated ticks
sim_insts                                     2900360                       # Number of instructions simulated
sim_ops                                       4767670                       # Number of ops (including micro ops) simulated
sim_seconds                                  0.002463                       # Number of seconds simulated
sim_ticks                                  2463144000                       # Number of ticks simulated
system.cpu.branchPred.BTBCorrect                    0                       # Number of correct BTB predictions (this stat may not work properly.
system.cpu.branchPred.BTBHitPct              0.000000                       # BTB Hit Percentage
system.cpu.branchPred.BTBHits                       0                       # Number of BTB hits
system.cpu.branchPred.BTBLookups               640713                       # Number of BTB lookups
system.cpu.branchPred.RASInCorrect                  2                       # Number of incorrect RAS predictions.
system.cpu.branchPred.condIncorrect            104775                       # Number of conditional branches incorrect
system.cpu.branchPred.condPredicted           1022264                       # Number of conditional branches predicted
system.cpu.branchPred.indirectHits             367815                       # Number of indirect target hits.
system.cpu.branchPred.indirectLookups          640713                       # Number of indirect predictor lookups.
system.cpu.branchPred.indirectMisses           272898                       # Number of indirect misses.
system.cpu.branchPred.lookups                 1076490                       # Number of BP lookups
system.cpu.branchPred.usedRAS                   20724                       # Number of times the RAS was used to get a target.
system.cpu.branchPredindirectMispredicted        39956                       # Number of mispredicted indirect branches.
system.cpu.cc_regfile_reads                   3206218                       # number of cc regfile reads
system.cpu.cc_regfile_writes                  2765906                       # number of cc regfile writes
system.cpu.commit.amos                              0                       # Number of atomic instructions committed
system.cpu.commit.branchMispredicts            104786                       # The number of times a branch was mispredicted
system.cpu.commit.branches                     570212                       # Number of branches committed
system.cpu.commit.bw_lim_events                238253                       # number cycles where commit BW limit reached
system.cpu.commit.commitNonSpecStalls               8                       # The number of times commit has been forced to stall to communicate backwards
system.cpu.commit.commitSquashedInsts         2590611                       # The number of squashed insts skipped by commit
system.cpu.commit.committedInsts              2900360                       # Number of instructions committed
system.cpu.commit.committedOps                4767670                       # Number of ops (including micro ops) committed
system.cpu.commit.committed_per_cycle::samples      2084690                       # Number of insts commited each cycle
system.cpu.commit.committed_per_cycle::mean     2.286992                       # Number of insts commited each cycle
system.cpu.commit.committed_per_cycle::stdev     2.906321                       # Number of insts commited each cycle
system.cpu.commit.committed_per_cycle::underflows            0      0.00%      0.00% # Number of insts commited each cycle
system.cpu.commit.committed_per_cycle::0       931257     44.67%     44.67% # Number of insts commited each cycle
system.cpu.commit.committed_per_cycle::1       320686     15.38%     60.05% # Number of insts commited each cycle
system.cpu.commit.committed_per_cycle::2       130541      6.26%     66.32% # Number of insts commited each cycle
system.cpu.commit.committed_per_cycle::3       133335      6.40%     72.71% # Number of insts commited each cycle
system.cpu.commit.committed_per_cycle::4        95127      4.56%     77.28% # Number of insts commited each cycle
system.cpu.commit.committed_per_cycle::5        49081      2.35%     79.63% # Number of insts commited each cycle
system.cpu.commit.committed_per_cycle::6        50910      2.44%     82.07% # Number of insts commited each cycle
system.cpu.commit.committed_per_cycle::7       135500      6.50%     88.57% # Number of insts commited each cycle
system.cpu.commit.committed_per_cycle::8       238253     11.43%    100.00% # Number of insts commited each cycle
system.cpu.commit.committed_per_cycle::overflows            0      0.00%    100.00% # Number of insts commited each cycle
system.cpu.commit.committed_per_cycle::min_value            0                       # Number of insts commited each cycle
system.cpu.commit.committed_per_cycle::max_value            8                       # Number of insts commited each cycle
system.cpu.commit.committed_per_cycle::total      2084690                       # Number of insts commited each cycle
system.cpu.commit.fp_insts                        288                       # Number of committed floating point instructions.
system.cpu.commit.function_calls                 8278                       # Number of function calls committed.
system.cpu.commit.int_insts                   4751155                       # Number of committed integer instructions.
system.cpu.commit.loads                        420739                       # Number of loads committed
system.cpu.commit.membars                           0                       # Number of memory barriers committed
system.cpu.commit.op_class_0::No_OpClass         8230      0.17%      0.17% # Class of committed instruction
system.cpu.commit.op_class_0::IntAlu          4009724     84.10%     84.28% # Class of committed instruction
system.cpu.commit.op_class_0::IntMult               5      0.00%     84.28% # Class of committed instruction
system.cpu.commit.op_class_0::IntDiv               21      0.00%     84.28% # Class of committed instruction
system.cpu.commit.op_class_0::FloatAdd              2      0.00%     84.28% # Class of committed instruction
system.cpu.commit.op_class_0::FloatCmp              0      0.00%     84.28% # Class of committed instruction
system.cpu.commit.op_class_0::FloatCvt              0      0.00%     84.28% # Class of committed instruction
system.cpu.commit.op_class_0::FloatMult             0      0.00%     84.28% # Class of committed instruction
system.cpu.commit.op_class_0::FloatMultAcc            0      0.00%     84.28% # Class of committed instruction
system.cpu.commit.op_class_0::FloatDiv              0      0.00%     84.28% # Class of committed instruction
system.cpu.commit.op_class_0::FloatMisc             0      0.00%     84.28% # Class of committed instruction
system.cpu.commit.op_class_0::FloatSqrt             0      0.00%     84.28% # Class of committed instruction
system.cpu.commit.op_class_0::SimdAdd               0      0.00%     84.28% # Class of committed instruction
system.cpu.commit.op_class_0::SimdAddAcc            0      0.00%     84.28% # Class of committed instruction
system.cpu.commit.op_class_0::SimdAlu              34      0.00%     84.28% # Class of committed instruction
system.cpu.commit.op_class_0::SimdCmp               0      0.00%     84.28% # Class of committed instruction
system.cpu.commit.op_class_0::SimdCvt              28      0.00%     84.28% # Class of committed instruction
system.cpu.commit.op_class_0::SimdMisc             42      0.00%     84.28% # Class of committed instruction
system.cpu.commit.op_class_0::SimdMult              0      0.00%     84.28% # Class of committed instruction
system.cpu.commit.op_class_0::SimdMultAcc            0      0.00%     84.28% # Class of committed instruction
system.cpu.commit.op_class_0::SimdShift             0      0.00%     84.28% # Class of committed instruction
system.cpu.commit.op_class_0::SimdShiftAcc            0      0.00%     84.28% # Class of committed instruction
system.cpu.commit.op_class_0::SimdDiv               0      0.00%     84.28% # Class of committed instruction
system.cpu.commit.op_class_0::SimdSqrt              0      0.00%     84.28% # Class of committed instruction
system.cpu.commit.op_class_0::SimdFloatAdd            0      0.00%     84.28% # Class of committed instruction
system.cpu.commit.op_class_0::SimdFloatAlu            0      0.00%     84.28% # Class of committed instruction
system.cpu.commit.op_class_0::SimdFloatCmp            0      0.00%     84.28% # Class of committed instruction
system.cpu.commit.op_class_0::SimdFloatCvt            0      0.00%     84.28% # Class of committed instruction
system.cpu.commit.op_class_0::SimdFloatDiv            0      0.00%     84.28% # Class of committed instruction
system.cpu.commit.op_class_0::SimdFloatMisc            0      0.00%     84.28% # Class of committed instruction
system.cpu.commit.op_class_0::SimdFloatMult            0      0.00%     84.28% # Class of committed instruction
system.cpu.commit.op_class_0::SimdFloatMultAcc            0      0.00%     84.28% # Class of committed instruction
system.cpu.commit.op_class_0::SimdFloatSqrt            0      0.00%     84.28% # Class of committed instruction
system.cpu.commit.op_class_0::SimdReduceAdd            0      0.00%     84.28% # Class of committed instruction
system.cpu.commit.op_class_0::SimdReduceAlu            0      0.00%     84.28% # Class of committed instruction
system.cpu.commit.op_class_0::SimdReduceCmp            0      0.00%     84.28% # Class of committed instruction
system.cpu.commit.op_class_0::SimdFloatReduceAdd            0      0.00%     84.28% # Class of committed instruction
system.cpu.commit.op_class_0::SimdFloatReduceCmp            0      0.00%     84.28% # Class of committed instruction
system.cpu.commit.op_class_0::SimdAes               0      0.00%     84.28% # Class of committed instruction
system.cpu.commit.op_class_0::SimdAesMix            0      0.00%     84.28% # Class of committed instruction
system.cpu.commit.op_class_0::SimdSha1Hash            0      0.00%     84.28% # Class of committed instruction
system.cpu.commit.op_class_0::SimdSha1Hash2            0      0.00%     84.28% # Class of committed instruction
system.cpu.commit.op_class_0::SimdSha256Hash            0      0.00%     84.28% # Class of committed instruction
system.cpu.commit.op_class_0::SimdSha256Hash2            0      0.00%     84.28% # Class of committed instruction
system.cpu.commit.op_class_0::SimdShaSigma2            0      0.00%     84.28% # Class of committed instruction
system.cpu.commit.op_class_0::SimdShaSigma3            0      0.00%     84.28% # Class of committed instruction
system.cpu.commit.op_class_0::SimdPredAlu            0      0.00%     84.28% # Class of committed instruction
system.cpu.commit.op_class_0::MemRead          420715      8.82%     93.10% # Class of committed instruction
system.cpu.commit.op_class_0::MemWrite         328693      6.89%    100.00% # Class of committed instruction
system.cpu.commit.op_class_0::FloatMemRead           24      0.00%    100.00% # Class of committed instruction
system.cpu.commit.op_class_0::FloatMemWrite          152      0.00%    100.00% # Class of committed instruction
system.cpu.commit.op_class_0::IprAccess             0      0.00%    100.00% # Class of committed instruction
system.cpu.commit.op_class_0::InstPrefetch            0      0.00%    100.00% # Class of committed instruction
system.cpu.commit.op_class_0::total           4767670                       # Class of committed instruction
system.cpu.commit.refs                         749584                       # Number of memory references committed
system.cpu.commit.swp_count                         0                       # Number of s/w prefetches committed
system.cpu.commit.vec_insts                         0                       # Number of committed Vector instructions.
system.cpu.committedInsts                     2900360                       # Number of Instructions Simulated
system.cpu.committedOps                       4767670                       # Number of Ops (including micro ops) Simulated
system.cpu.cpi                               0.849255                       # CPI: Cycles Per Instruction
system.cpu.cpi_total                         0.849255                       # CPI: Total CPI of All Threads
system.cpu.decode.BlockedCycles                461765                       # Number of cycles decode is blocked
system.cpu.decode.DecodedInsts                8917497                       # Number of instructions handled by decode
system.cpu.decode.IdleCycles                   626516                       # Number of cycles decode is idle
system.cpu.decode.RunCycles                   1097934                       # Number of cycles decode is running
system.cpu.decode.SquashCycles                 104891                       # Number of cycles decode is squashing
system.cpu.decode.UnblockCycles                165956                       # Number of cycles decode is unblocking
system.cpu.dtb.rdAccesses                      518067                       # TLB accesses on read requests
system.cpu.dtb.rdMisses                            63                       # TLB misses on read requests
system.cpu.dtb.wrAccesses                      411095                       # TLB accesses on write requests
system.cpu.dtb.wrMisses                            17                       # TLB misses on write requests
system.cpu.fetch.Branches                     1076490                       # Number of branches that fetch encountered
system.cpu.fetch.CacheLines                    604490                       # Number of cache lines fetched
system.cpu.fetch.Cycles                       1692506                       # Number of cycles fetch has run and was not squashing or blocked
system.cpu.fetch.IcacheSquashes                 30573                       # Number of outstanding Icache misses that were squashed
system.cpu.fetch.Insts                        5839011                       # Number of instructions fetch has processed
system.cpu.fetch.MiscStallCycles                   15                       # Number of cycles fetch has spent waiting on interrupts, or bad addresses, or out of MSHRs
system.cpu.fetch.PendingQuiesceStallCycles            7                       # Number of stall cycles due to pending quiesce instructions
system.cpu.fetch.PendingTrapStallCycles            81                       # Number of stall cycles due to pending traps
system.cpu.fetch.SquashCycles                  209782                       # Number of cycles fetch has spent squashing
system.cpu.fetch.branchRate                  0.437039                       # Number of branch fetches per cycle
system.cpu.fetch.icacheStallCycles             659562                       # Number of cycles fetch is stalled on an Icache miss
system.cpu.fetch.predictedBranches             388539                       # Number of branches that fetch has predicted taken
system.cpu.fetch.rate                        2.370551                       # Number of inst fetches per cycle
system.cpu.fetch.rateDist::samples            2457062                       # Number of instructions fetched each cycle (Total)
system.cpu.fetch.rateDist::mean              3.866887                       # Number of instructions fetched each cycle (Total)
system.cpu.fetch.rateDist::stdev             3.694653                       # Number of instructions fetched each cycle (Total)
system.cpu.fetch.rateDist::underflows               0      0.00%      0.00% # Number of instructions fetched each cycle (Total)
system.cpu.fetch.rateDist::0                  1070255     43.56%     43.56% # Number of instructions fetched each cycle (Total)
system.cpu.fetch.rateDist::1                    12103      0.49%     44.05% # Number of instructions fetched each cycle (Total)
system.cpu.fetch.rateDist::2                     6880      0.28%     44.33% # Number of instructions fetched each cycle (Total)
system.cpu.fetch.rateDist::3                   184498      7.51%     51.84% # Number of instructions fetched each cycle (Total)
system.cpu.fetch.rateDist::4                    28899      1.18%     53.02% # Number of instructions fetched each cycle (Total)
system.cpu.fetch.rateDist::5                    98521      4.01%     57.03% # Number of instructions fetched each cycle (Total)
system.cpu.fetch.rateDist::6                    40442      1.65%     58.67% # Number of instructions fetched each cycle (Total)
system.cpu.fetch.rateDist::7                    52742      2.15%     60.82% # Number of instructions fetched each cycle (Total)
system.cpu.fetch.rateDist::8                   962722     39.18%    100.00% # Number of instructions fetched each cycle (Total)
system.cpu.fetch.rateDist::overflows                0      0.00%    100.00% # Number of instructions fetched each cycle (Total)
system.cpu.fetch.rateDist::min_value                0                       # Number of instructions fetched each cycle (Total)
system.cpu.fetch.rateDist::max_value                8                       # Number of instructions fetched each cycle (Total)
system.cpu.fetch.rateDist::total              2457062                       # Number of instructions fetched each cycle (Total)
system.cpu.fp_regfile_reads                       455                       # number of floating regfile reads
system.cpu.fp_regfile_writes                      148                       # number of floating regfile writes
system.cpu.idleCycles                            6083                       # Total number of cycles that the CPU has spent unscheduled due to idling
system.cpu.iew.branchMispredicts               115545                       # Number of branch mispredicts detected at execute
system.cpu.iew.exec_branches                   721056                       # Number of branches executed
system.cpu.iew.exec_nop                             0                       # number of nop insts executed
system.cpu.iew.exec_rate                     2.603597                       # Inst execution rate
system.cpu.iew.exec_refs                       928897                       # number of memory reference insts executed
system.cpu.iew.exec_stores                     411094                       # Number of stores executed
system.cpu.iew.exec_swp                             0                       # number of swp insts executed
system.cpu.iew.iewBlockCycles                  270144                       # Number of cycles IEW is blocking
system.cpu.iew.iewDispLoadInsts                615725                       # Number of dispatched load instructions
system.cpu.iew.iewDispNonSpecInsts                 30                       # Number of dispatched non-speculative instructions
system.cpu.iew.iewDispSquashedInsts             16205                       # Number of squashed instructions skipped by dispatch
system.cpu.iew.iewDispStoreInsts               530136                       # Number of dispatched store instructions
system.cpu.iew.iewDispatchedInsts             7358281                       # Number of instructions dispatched to IQ
system.cpu.iew.iewExecLoadInsts                517803                       # Number of load instructions executed
system.cpu.iew.iewExecSquashedInsts            272948                       # Number of squashed instructions skipped in execute
system.cpu.iew.iewExecutedInsts               6413038                       # Number of executed instructions
system.cpu.iew.iewIQFullEvents                    140                       # Number of times the IQ has become full, causing a stall
system.cpu.iew.iewIdleCycles                        0                       # Number of cycles IEW is idle
system.cpu.iew.iewLSQFullEvents                   386                       # Number of times the LSQ has become full, causing a stall
system.cpu.iew.iewSquashCycles                 104891                       # Number of cycles IEW is squashing
system.cpu.iew.iewUnblockCycles                   546                       # Number of cycles IEW is unblocking
system.cpu.iew.lsq.thread0.blockedLoads             0                       # Number of blocked loads due to partial load-store forwarding
system.cpu.iew.lsq.thread0.cacheBlocked             1                       # Number of times an access to memory failed due to the cache being blocked
system.cpu.iew.lsq.thread0.forwLoads            26681                       # Number of loads that had data forwarded from stores
system.cpu.iew.lsq.thread0.ignoredResponses           27                       # Number of memory responses ignored because the instruction is squashed
system.cpu.iew.lsq.thread0.invAddrLoads             0                       # Number of loads ignored due to an invalid address
system.cpu.iew.lsq.thread0.invAddrSwpfs             0                       # Number of software prefetches ignored due to an invalid address
system.cpu.iew.lsq.thread0.memOrderViolation          131                       # Number of memory ordering violations
system.cpu.iew.lsq.thread0.rescheduledLoads            1                       # Number of loads that were rescheduled
system.cpu.iew.lsq.thread0.squashedLoads       194986                       # Number of loads squashed
system.cpu.iew.lsq.thread0.squashedStores       201291                       # Number of stores squashed
system.cpu.iew.memOrderViolationEvents            131                       # Number of memory order violations
system.cpu.iew.predictedNotTakenIncorrect        78278                       # Number of branches that were predicted not taken incorrectly
system.cpu.iew.predictedTakenIncorrect          37267                       # Number of branches that were predicted taken incorrectly
system.cpu.iew.wb_consumers                   6206928                       # num instructions consuming a value
system.cpu.iew.wb_count                       6349535                       # cumulative count of insts written-back
system.cpu.iew.wb_fanout                     0.721889                       # average fanout of values written-back
system.cpu.iew.wb_producers                   4480713                       # num instructions producing a value
system.cpu.iew.wb_rate                       2.577816                       # insts written-back per cycle
system.cpu.iew.wb_sent                        6369773                       # cumulative count of insts sent to commit
system.cpu.int_regfile_reads                  8638539                       # number of integer regfile reads
system.cpu.int_regfile_writes                 5198380                       # number of integer regfile writes
system.cpu.ipc                               1.177503                       # IPC: Instructions Per Cycle
system.cpu.ipc_total                         1.177503                       # IPC: Total IPC of All Threads
system.cpu.iq.FU_type_0::No_OpClass             17732      0.27%      0.27% # Type of FU issued
system.cpu.iq.FU_type_0::IntAlu               5667369     84.76%     85.03% # Type of FU issued
system.cpu.iq.FU_type_0::IntMult                    5      0.00%     85.03% # Type of FU issued
system.cpu.iq.FU_type_0::IntDiv                    23      0.00%     85.03% # Type of FU issued
system.cpu.iq.FU_type_0::FloatAdd                   2      0.00%     85.03% # Type of FU issued
system.cpu.iq.FU_type_0::FloatCmp                   0      0.00%     85.03% # Type of FU issued
system.cpu.iq.FU_type_0::FloatCvt                   0      0.00%     85.03% # Type of FU issued
system.cpu.iq.FU_type_0::FloatMult                  0      0.00%     85.03% # Type of FU issued
system.cpu.iq.FU_type_0::FloatMultAcc               0      0.00%     85.03% # Type of FU issued
system.cpu.iq.FU_type_0::FloatDiv                   0      0.00%     85.03% # Type of FU issued
system.cpu.iq.FU_type_0::FloatMisc                  0      0.00%     85.03% # Type of FU issued
system.cpu.iq.FU_type_0::FloatSqrt                  0      0.00%     85.03% # Type of FU issued
system.cpu.iq.FU_type_0::SimdAdd                    0      0.00%     85.03% # Type of FU issued
system.cpu.iq.FU_type_0::SimdAddAcc                 0      0.00%     85.03% # Type of FU issued
system.cpu.iq.FU_type_0::SimdAlu                   50      0.00%     85.03% # Type of FU issued
system.cpu.iq.FU_type_0::SimdCmp                    0      0.00%     85.03% # Type of FU issued
system.cpu.iq.FU_type_0::SimdCvt                   42      0.00%     85.03% # Type of FU issued
system.cpu.iq.FU_type_0::SimdMisc                  52      0.00%     85.03% # Type of FU issued
system.cpu.iq.FU_type_0::SimdMult                   0      0.00%     85.03% # Type of FU issued
system.cpu.iq.FU_type_0::SimdMultAcc                0      0.00%     85.03% # Type of FU issued
system.cpu.iq.FU_type_0::SimdShift                  0      0.00%     85.03% # Type of FU issued
system.cpu.iq.FU_type_0::SimdShiftAcc               0      0.00%     85.03% # Type of FU issued
system.cpu.iq.FU_type_0::SimdDiv                    0      0.00%     85.03% # Type of FU issued
system.cpu.iq.FU_type_0::SimdSqrt                   0      0.00%     85.03% # Type of FU issued
system.cpu.iq.FU_type_0::SimdFloatAdd               0      0.00%     85.03% # Type of FU issued
system.cpu.iq.FU_type_0::SimdFloatAlu               0      0.00%     85.03% # Type of FU issued
system.cpu.iq.FU_type_0::SimdFloatCmp               0      0.00%     85.03% # Type of FU issued
system.cpu.iq.FU_type_0::SimdFloatCvt               0      0.00%     85.03% # Type of FU issued
system.cpu.iq.FU_type_0::SimdFloatDiv               0      0.00%     85.03% # Type of FU issued
system.cpu.iq.FU_type_0::SimdFloatMisc              0      0.00%     85.03% # Type of FU issued
system.cpu.iq.FU_type_0::SimdFloatMult              0      0.00%     85.03% # Type of FU issued
system.cpu.iq.FU_type_0::SimdFloatMultAcc            0      0.00%     85.03% # Type of FU issued
system.cpu.iq.FU_type_0::SimdFloatSqrt              0      0.00%     85.03% # Type of FU issued
system.cpu.iq.FU_type_0::SimdReduceAdd              0      0.00%     85.03% # Type of FU issued
system.cpu.iq.FU_type_0::SimdReduceAlu              0      0.00%     85.03% # Type of FU issued
system.cpu.iq.FU_type_0::SimdReduceCmp              0      0.00%     85.03% # Type of FU issued
system.cpu.iq.FU_type_0::SimdFloatReduceAdd            0      0.00%     85.03% # Type of FU issued
system.cpu.iq.FU_type_0::SimdFloatReduceCmp            0      0.00%     85.03% # Type of FU issued
system.cpu.iq.FU_type_0::SimdAes                    0      0.00%     85.03% # Type of FU issued
system.cpu.iq.FU_type_0::SimdAesMix                 0      0.00%     85.03% # Type of FU issued
system.cpu.iq.FU_type_0::SimdSha1Hash               0      0.00%     85.03% # Type of FU issued
system.cpu.iq.FU_type_0::SimdSha1Hash2              0      0.00%     85.03% # Type of FU issued
system.cpu.iq.FU_type_0::SimdSha256Hash             0      0.00%     85.03% # Type of FU issued
system.cpu.iq.FU_type_0::SimdSha256Hash2            0      0.00%     85.03% # Type of FU issued
system.cpu.iq.FU_type_0::SimdShaSigma2              0      0.00%     85.03% # Type of FU issued
system.cpu.iq.FU_type_0::SimdShaSigma3              0      0.00%     85.03% # Type of FU issued
system.cpu.iq.FU_type_0::SimdPredAlu                0      0.00%     85.03% # Type of FU issued
system.cpu.iq.FU_type_0::MemRead               555776      8.31%     93.35% # Type of FU issued
system.cpu.iq.FU_type_0::MemWrite              442088      6.61%     99.96% # Type of FU issued
system.cpu.iq.FU_type_0::FloatMemRead            2694      0.04%    100.00% # Type of FU issued
system.cpu.iq.FU_type_0::FloatMemWrite            153      0.00%    100.00% # Type of FU issued
system.cpu.iq.FU_type_0::IprAccess                  0      0.00%    100.00% # Type of FU issued
system.cpu.iq.FU_type_0::InstPrefetch               0      0.00%    100.00% # Type of FU issued
system.cpu.iq.FU_type_0::total                6685986                       # Type of FU issued
system.cpu.iq.fp_alu_accesses                    3016                       # Number of floating point alu accesses
system.cpu.iq.fp_inst_queue_reads                6019                       # Number of floating instruction queue reads
system.cpu.iq.fp_inst_queue_wakeup_accesses          339                       # Number of floating instruction queue wakeup accesses
system.cpu.iq.fp_inst_queue_writes              24628                       # Number of floating instruction queue writes
system.cpu.iq.fu_busy_cnt                      212370                       # FU busy when requested
system.cpu.iq.fu_busy_rate                   0.031763                       # FU busy rate (busy events/executed inst)
system.cpu.iq.fu_full::No_OpClass                   0      0.00%      0.00% # attempts to use FU when none available
system.cpu.iq.fu_full::IntAlu                  212214     99.93%     99.93% # attempts to use FU when none available
system.cpu.iq.fu_full::IntMult                      0      0.00%     99.93% # attempts to use FU when none available
system.cpu.iq.fu_full::IntDiv                       0      0.00%     99.93% # attempts to use FU when none available
system.cpu.iq.fu_full::FloatAdd                     0      0.00%     99.93% # attempts to use FU when none available
system.cpu.iq.fu_full::FloatCmp                     0      0.00%     99.93% # attempts to use FU when none available
system.cpu.iq.fu_full::FloatCvt                     0      0.00%     99.93% # attempts to use FU when none available
system.cpu.iq.fu_full::FloatMult                    0      0.00%     99.93% # attempts to use FU when none available
system.cpu.iq.fu_full::FloatMultAcc                 0      0.00%     99.93% # attempts to use FU when none available
system.cpu.iq.fu_full::FloatDiv                     0      0.00%     99.93% # attempts to use FU when none available
system.cpu.iq.fu_full::FloatMisc                    0      0.00%     99.93% # attempts to use FU when none available
system.cpu.iq.fu_full::FloatSqrt                    0      0.00%     99.93% # attempts to use FU when none available
system.cpu.iq.fu_full::SimdAdd                      0      0.00%     99.93% # attempts to use FU when none available
system.cpu.iq.fu_full::SimdAddAcc                   0      0.00%     99.93% # attempts to use FU when none available
system.cpu.iq.fu_full::SimdAlu                      2      0.00%     99.93% # attempts to use FU when none available
system.cpu.iq.fu_full::SimdCmp                      0      0.00%     99.93% # attempts to use FU when none available
system.cpu.iq.fu_full::SimdCvt                      2      0.00%     99.93% # attempts to use FU when none available
system.cpu.iq.fu_full::SimdMisc                     0      0.00%     99.93% # attempts to use FU when none available
system.cpu.iq.fu_full::SimdMult                     0      0.00%     99.93% # attempts to use FU when none available
system.cpu.iq.fu_full::SimdMultAcc                  0      0.00%     99.93% # attempts to use FU when none available
system.cpu.iq.fu_full::SimdShift                    0      0.00%     99.93% # attempts to use FU when none available
system.cpu.iq.fu_full::SimdShiftAcc                 0      0.00%     99.93% # attempts to use FU when none available
system.cpu.iq.fu_full::SimdDiv                      0      0.00%     99.93% # attempts to use FU when none available
system.cpu.iq.fu_full::SimdSqrt                     0      0.00%     99.93% # attempts to use FU when none available
system.cpu.iq.fu_full::SimdFloatAdd                 0      0.00%     99.93% # attempts to use FU when none available
system.cpu.iq.fu_full::SimdFloatAlu                 0      0.00%     99.93% # attempts to use FU when none available
system.cpu.iq.fu_full::SimdFloatCmp                 0      0.00%     99.93% # attempts to use FU when none available
system.cpu.iq.fu_full::SimdFloatCvt                 0      0.00%     99.93% # attempts to use FU when none available
system.cpu.iq.fu_full::SimdFloatDiv                 0      0.00%     99.93% # attempts to use FU when none available
system.cpu.iq.fu_full::SimdFloatMisc                0      0.00%     99.93% # attempts to use FU when none available
system.cpu.iq.fu_full::SimdFloatMult                0      0.00%     99.93% # attempts to use FU when none available
system.cpu.iq.fu_full::SimdFloatMultAcc             0      0.00%     99.93% # attempts to use FU when none available
system.cpu.iq.fu_full::SimdFloatSqrt                0      0.00%     99.93% # attempts to use FU when none available
system.cpu.iq.fu_full::SimdReduceAdd                0      0.00%     99.93% # attempts to use FU when none available
system.cpu.iq.fu_full::SimdReduceAlu                0      0.00%     99.93% # attempts to use FU when none available
system.cpu.iq.fu_full::SimdReduceCmp                0      0.00%     99.93% # attempts to use FU when none available
system.cpu.iq.fu_full::SimdFloatReduceAdd            0      0.00%     99.93% # attempts to use FU when none available
system.cpu.iq.fu_full::SimdFloatReduceCmp            0      0.00%     99.93% # attempts to use FU when none available
system.cpu.iq.fu_full::SimdAes                      0      0.00%     99.93% # attempts to use FU when none available
system.cpu.iq.fu_full::SimdAesMix                   0      0.00%     99.93% # attempts to use FU when none available
system.cpu.iq.fu_full::SimdSha1Hash                 0      0.00%     99.93% # attempts to use FU when none available
system.cpu.iq.fu_full::SimdSha1Hash2                0      0.00%     99.93% # attempts to use FU when none available
system.cpu.iq.fu_full::SimdSha256Hash               0      0.00%     99.93% # attempts to use FU when none available
system.cpu.iq.fu_full::SimdSha256Hash2              0      0.00%     99.93% # attempts to use FU when none available
system.cpu.iq.fu_full::SimdShaSigma2                0      0.00%     99.93% # attempts to use FU when none available
system.cpu.iq.fu_full::SimdShaSigma3                0      0.00%     99.93% # attempts to use FU when none available
system.cpu.iq.fu_full::SimdPredAlu                  0      0.00%     99.93% # attempts to use FU when none available
system.cpu.iq.fu_full::MemRead                    109      0.05%     99.98% # attempts to use FU when none available
system.cpu.iq.fu_full::MemWrite                    34      0.02%    100.00% # attempts to use FU when none available
system.cpu.iq.fu_full::FloatMemRead                 1      0.00%    100.00% # attempts to use FU when none available
system.cpu.iq.fu_full::FloatMemWrite                8      0.00%    100.00% # attempts to use FU when none available
system.cpu.iq.fu_full::IprAccess                    0      0.00%    100.00% # attempts to use FU when none available
system.cpu.iq.fu_full::InstPrefetch                 0      0.00%    100.00% # attempts to use FU when none available
system.cpu.iq.int_alu_accesses                6877608                       # Number of integer alu accesses
system.cpu.iq.int_inst_queue_reads           16056544                       # Number of integer instruction queue reads
system.cpu.iq.int_inst_queue_wakeup_accesses      6349196                       # Number of integer instruction queue wakeup accesses
system.cpu.iq.int_inst_queue_writes           9924379                       # Number of integer instruction queue writes
system.cpu.iq.iqInstsAdded                    7358220                       # Number of instructions added to the IQ (excludes non-spec)
system.cpu.iq.iqInstsIssued                   6685986                       # Number of instructions issued
system.cpu.iq.iqNonSpecInstsAdded                  61                       # Number of non-speculative instructions added to the IQ
system.cpu.iq.iqSquashedInstsExamined         2590610                       # Number of squashed instructions iterated over during squash; mainly for profiling
system.cpu.iq.iqSquashedInstsIssued             21159                       # Number of squashed instructions issued
system.cpu.iq.iqSquashedNonSpecRemoved             53                       # Number of squashed non-spec instructions that were removed
system.cpu.iq.iqSquashedOperandsExamined      2784741                       # Number of squashed operands that are examined and possibly removed from graph
system.cpu.iq.issued_per_cycle::samples       2457062                       # Number of insts issued each cycle
system.cpu.iq.issued_per_cycle::mean         2.721130                       # Number of insts issued each cycle
system.cpu.iq.issued_per_cycle::stdev        2.484063                       # Number of insts issued each cycle
system.cpu.iq.issued_per_cycle::underflows            0      0.00%      0.00% # Number of insts issued each cycle
system.cpu.iq.issued_per_cycle::0              823494     33.52%     33.52% # Number of insts issued each cycle
system.cpu.iq.issued_per_cycle::1              180274      7.34%     40.85% # Number of insts issued each cycle
system.cpu.iq.issued_per_cycle::2              236476      9.62%     50.48% # Number of insts issued each cycle
system.cpu.iq.issued_per_cycle::3              237477      9.67%     60.14% # Number of insts issued each cycle
system.cpu.iq.issued_per_cycle::4              258959     10.54%     70.68% # Number of insts issued each cycle
system.cpu.iq.issued_per_cycle::5              228726      9.31%     79.99% # Number of insts issued each cycle
system.cpu.iq.issued_per_cycle::6              324864     13.22%     93.21% # Number of insts issued each cycle
system.cpu.iq.issued_per_cycle::7              142657      5.81%     99.02% # Number of insts issued each cycle
system.cpu.iq.issued_per_cycle::8               24135      0.98%    100.00% # Number of insts issued each cycle
system.cpu.iq.issued_per_cycle::overflows            0      0.00%    100.00% # Number of insts issued each cycle
system.cpu.iq.issued_per_cycle::min_value            0                       # Number of insts issued each cycle
system.cpu.iq.issued_per_cycle::max_value            8                       # Number of insts issued each cycle
system.cpu.iq.issued_per_cycle::total         2457062                       # Number of insts issued each cycle
system.cpu.iq.rate                           2.714410                       # Inst issue rate
system.cpu.iq.vec_alu_accesses                      0                       # Number of vector alu accesses
system.cpu.iq.vec_inst_queue_reads                  0                       # Number of vector instruction queue reads
system.cpu.iq.vec_inst_queue_wakeup_accesses            0                       # Number of vector instruction queue wakeup accesses
system.cpu.iq.vec_inst_queue_writes                 0                       # Number of vector instruction queue writes
system.cpu.itb.rdAccesses                           0                       # TLB accesses on read requests
system.cpu.itb.rdMisses                             0                       # TLB misses on read requests
system.cpu.itb.wrAccesses                      604505                       # TLB accesses on write requests
system.cpu.itb.wrMisses                            46                       # TLB misses on write requests
system.cpu.memDep0.conflictingLoads            121958                       # Number of conflicting loads.
system.cpu.memDep0.conflictingStores           153718                       # Number of conflicting stores.
system.cpu.memDep0.insertedLoads               615725                       # Number of loads inserted to the mem dependence unit.
system.cpu.memDep0.insertedStores              530136                       # Number of stores inserted to the mem dependence unit.
system.cpu.misc_regfile_reads                 2431094                       # number of misc regfile reads
system.cpu.misc_regfile_writes                      1                       # number of misc regfile writes
system.cpu.numCycles                          2463145                       # number of cpu cycles simulated
system.cpu.numWorkItemsCompleted                    0                       # number of work items this cpu completed
system.cpu.numWorkItemsStarted                      0                       # number of work items this cpu started
system.cpu.rename.BlockCycles                  374824                       # Number of cycles rename is blocking
system.cpu.rename.CommittedMaps               5921431                       # Number of HB maps that are committed
system.cpu.rename.IQFullEvents                   4719                       # Number of times rename has blocked due to IQ full
system.cpu.rename.IdleCycles                   704215                       # Number of cycles rename is idle
system.cpu.rename.ROBFullEvents                 56434                       # Number of times rename has blocked due to ROB full
system.cpu.rename.RenameLookups              19850578                       # Number of register rename lookups that rename has made
system.cpu.rename.RenamedInsts                8412404                       # Number of instructions processed by rename
system.cpu.rename.RenamedOperands            10423222                       # Number of destination operands rename has renamed
system.cpu.rename.RunCycles                   1115787                       # Number of cycles rename is running
system.cpu.rename.SQFullEvents                  21041                       # Number of times rename has blocked due to SQ full
system.cpu.rename.SquashCycles                 104891                       # Number of cycles rename is squashing
system.cpu.rename.UnblockCycles                156715                       # Number of cycles rename is unblocking
system.cpu.rename.UndoneMaps                  4501791                       # Number of HB maps that are undone due to squashing
system.cpu.rename.fp_rename_lookups              6982                       # Number of floating rename lookups
system.cpu.rename.int_rename_lookups         12030501                       # Number of integer rename lookups
system.cpu.rename.serializeStallCycles            630                       # count of cycles rename stalled for serializing inst
system.cpu.rename.serializingInsts                 23                       # count of serializing insts renamed
system.cpu.rename.skidInsts                    691467                       # count of insts added to the skid buffer
system.cpu.rename.tempSerializingInsts             17                       # count of temporary serializing insts renamed
system.cpu.rob.rob_reads                      9204718                       # The number of ROB reads
system.cpu.rob.rob_writes                    15091265                       # The number of ROB writes
system.cpu.timesIdled                             180                       # Number of times that the entire CPU went into an idle state and unscheduled itself
system.cpu.workload.numSyscalls                     7                       # Number of system calls
system.membus.snoop_filter.hit_multi_requests            1                       # Number of requests hitting in the snoop filter with multiple (>1) holders of the requested data.
system.membus.snoop_filter.hit_multi_snoops            0                       # Number of snoops hitting in the snoop filter with multiple (>1) holders of the requested data.
system.membus.snoop_filter.hit_single_requests           22                       # Number of requests hitting in the snoop filter with a single holder of the requested data.
system.membus.snoop_filter.hit_single_snoops            0                       # Number of snoops hitting in the snoop filter with a single holder of the requested data.
system.membus.snoop_filter.tot_requests          1550                       # Total number of requests made to the snoop filter.
system.membus.snoop_filter.tot_snoops               0                       # Total number of snoops made to the snoop filter.
system.membus.pwrStateResidencyTicks::UNDEFINED   2463144000                       # Cumulative time (in ticks) in various power states
system.membus.trans_dist::ReadResp                993                       # Transaction distribution
system.membus.trans_dist::WritebackDirty            5                       # Transaction distribution
system.membus.trans_dist::CleanEvict               17                       # Transaction distribution
system.membus.trans_dist::ReadExReq               534                       # Transaction distribution
system.membus.trans_dist::ReadExResp              534                       # Transaction distribution
system.membus.trans_dist::ReadSharedReq           994                       # Transaction distribution
system.membus.pkt_count_system.cpu.icache.mem_side::system.mem_ctrl.port          671                       # Packet count per connected master and slave (bytes)
system.membus.pkt_count_system.cpu.icache.mem_side::total          671                       # Packet count per connected master and slave (bytes)
system.membus.pkt_count_system.cpu.dcache.mem_side::system.mem_ctrl.port         2406                       # Packet count per connected master and slave (bytes)
system.membus.pkt_count_system.cpu.dcache.mem_side::total         2406                       # Packet count per connected master and slave (bytes)
system.membus.pkt_count::total                   3077                       # Packet count per connected master and slave (bytes)
system.membus.pkt_size_system.cpu.icache.mem_side::system.mem_ctrl.port        21440                       # Cumulative packet size per connected master and slave (bytes)
system.membus.pkt_size_system.cpu.icache.mem_side::total        21440                       # Cumulative packet size per connected master and slave (bytes)
system.membus.pkt_size_system.cpu.dcache.mem_side::system.mem_ctrl.port        76608                       # Cumulative packet size per connected master and slave (bytes)
system.membus.pkt_size_system.cpu.dcache.mem_side::total        76608                       # Cumulative packet size per connected master and slave (bytes)
system.membus.pkt_size::total                   98048                       # Cumulative packet size per connected master and slave (bytes)
system.membus.snoops                                0                       # Total snoops (count)
system.membus.snoopTraffic                          0                       # Total snoop traffic (bytes)
system.membus.snoop_fanout::samples              1528                       # Request fanout histogram
system.membus.snoop_fanout::mean             0.000654                       # Request fanout histogram
system.membus.snoop_fanout::stdev            0.025582                       # Request fanout histogram
system.membus.snoop_fanout::underflows              0      0.00%      0.00% # Request fanout histogram
system.membus.snoop_fanout::0                    1527     99.93%     99.93% # Request fanout histogram
system.membus.snoop_fanout::1                       1      0.07%    100.00% # Request fanout histogram
system.membus.snoop_fanout::2                       0      0.00%    100.00% # Request fanout histogram
system.membus.snoop_fanout::overflows               0      0.00%    100.00% # Request fanout histogram
system.membus.snoop_fanout::min_value               0                       # Request fanout histogram
system.membus.snoop_fanout::max_value               1                       # Request fanout histogram
system.membus.snoop_fanout::total                1528                       # Request fanout histogram
system.membus.reqLayer2.occupancy             1570000                       # Layer occupancy (ticks)
system.membus.reqLayer2.utilization               0.1                       # Layer utilization (%)
system.membus.respLayer1.occupancy            6375250                       # Layer occupancy (ticks)
system.membus.respLayer1.utilization              0.3                       # Layer utilization (%)
system.membus.respLayer0.occupancy            1775750                       # Layer occupancy (ticks)
system.membus.respLayer0.utilization              0.1                       # Layer utilization (%)
system.mem_ctrl.pwrStateResidencyTicks::UNDEFINED   2463144000                       # Cumulative time (in ticks) in various power states
system.mem_ctrl.bytes_read::.cpu.inst           21440                       # Number of bytes read from this memory
system.mem_ctrl.bytes_read::.cpu.data           76288                       # Number of bytes read from this memory
system.mem_ctrl.bytes_read::total               97728                       # Number of bytes read from this memory
system.mem_ctrl.bytes_inst_read::.cpu.inst        21440                       # Number of instructions bytes read from this memory
system.mem_ctrl.bytes_inst_read::total          21440                       # Number of instructions bytes read from this memory
system.mem_ctrl.bytes_written::.writebacks          320                       # Number of bytes written to this memory
system.mem_ctrl.bytes_written::total              320                       # Number of bytes written to this memory
system.mem_ctrl.num_reads::.cpu.inst              335                       # Number of read requests responded to by this memory
system.mem_ctrl.num_reads::.cpu.data             1192                       # Number of read requests responded to by this memory
system.mem_ctrl.num_reads::total                 1527                       # Number of read requests responded to by this memory
system.mem_ctrl.num_writes::.writebacks             5                       # Number of write requests responded to by this memory
system.mem_ctrl.num_writes::total                   5                       # Number of write requests responded to by this memory
system.mem_ctrl.bw_read::.cpu.inst            8704323                       # Total read bandwidth from this memory (bytes/s)
system.mem_ctrl.bw_read::.cpu.data           30971799                       # Total read bandwidth from this memory (bytes/s)
system.mem_ctrl.bw_read::total               39676121                       # Total read bandwidth from this memory (bytes/s)
system.mem_ctrl.bw_inst_read::.cpu.inst       8704323                       # Instruction read bandwidth from this memory (bytes/s)
system.mem_ctrl.bw_inst_read::total           8704323                       # Instruction read bandwidth from this memory (bytes/s)
system.mem_ctrl.bw_write::.writebacks          129915                       # Write bandwidth from this memory (bytes/s)
system.mem_ctrl.bw_write::total                129915                       # Write bandwidth from this memory (bytes/s)
system.mem_ctrl.bw_total::.writebacks          129915                       # Total bandwidth to/from this memory (bytes/s)
system.mem_ctrl.bw_total::.cpu.inst           8704323                       # Total bandwidth to/from this memory (bytes/s)
system.mem_ctrl.bw_total::.cpu.data          30971799                       # Total bandwidth to/from this memory (bytes/s)
system.mem_ctrl.bw_total::total              39806037                       # Total bandwidth to/from this memory (bytes/s)
system.mem_ctrl.avgPriority_.writebacks::samples         5.00                       # Average QoS priority value for accepted requests
system.mem_ctrl.avgPriority_.cpu.inst::samples       336.00                       # Average QoS priority value for accepted requests
system.mem_ctrl.avgPriority_.cpu.data::samples      1192.00                       # Average QoS priority value for accepted requests
system.mem_ctrl.priorityMinLatency       0.000000018750                       # per QoS priority minimum request to response latency (s)
system.mem_ctrl.priorityMaxLatency       0.000000573000                       # per QoS priority maximum request to response latency (s)
system.mem_ctrl.numReadWriteTurnArounds             0                       # Number of turnarounds from READ to WRITE
system.mem_ctrl.numWriteReadTurnArounds             0                       # Number of turnarounds from WRITE to READ
system.mem_ctrl.numStayReadState                 3667                       # Number of times bus staying in READ state
system.mem_ctrl.numStayWriteState                   0                       # Number of times bus staying in WRITE state
system.mem_ctrl.readReqs                         1528                       # Number of read requests accepted
system.mem_ctrl.writeReqs                           5                       # Number of write requests accepted
system.mem_ctrl.readBursts                       1528                       # Number of DRAM read bursts, including those serviced by the write queue
system.mem_ctrl.writeBursts                         5                       # Number of DRAM write bursts, including those merged in the write queue
system.mem_ctrl.servicedByWrQ                       0                       # Number of DRAM read bursts serviced by the write queue
system.mem_ctrl.mergedWrBursts                      0                       # Number of DRAM write bursts merged with an existing one
system.mem_ctrl.neitherReadNorWriteReqs             0                       # Number of requests that are neither read nor write
system.mem_ctrl.perBankRdBursts::0                189                       # Per bank write bursts
system.mem_ctrl.perBankRdBursts::1                172                       # Per bank write bursts
system.mem_ctrl.perBankRdBursts::2                152                       # Per bank write bursts
system.mem_ctrl.perBankRdBursts::3                142                       # Per bank write bursts
system.mem_ctrl.perBankRdBursts::4                 86                       # Per bank write bursts
system.mem_ctrl.perBankRdBursts::5                140                       # Per bank write bursts
system.mem_ctrl.perBankRdBursts::6                148                       # Per bank write bursts
system.mem_ctrl.perBankRdBursts::7                139                       # Per bank write bursts
system.mem_ctrl.perBankRdBursts::8                 94                       # Per bank write bursts
system.mem_ctrl.perBankRdBursts::9                 82                       # Per bank write bursts
system.mem_ctrl.perBankRdBursts::10                45                       # Per bank write bursts
system.mem_ctrl.perBankRdBursts::11                 0                       # Per bank write bursts
system.mem_ctrl.perBankRdBursts::12                 3                       # Per bank write bursts
system.mem_ctrl.perBankRdBursts::13                 0                       # Per bank write bursts
system.mem_ctrl.perBankRdBursts::14                 6                       # Per bank write bursts
system.mem_ctrl.perBankRdBursts::15               130                       # Per bank write bursts
system.mem_ctrl.perBankWrBursts::0                  0                       # Per bank write bursts
system.mem_ctrl.perBankWrBursts::1                  0                       # Per bank write bursts
system.mem_ctrl.perBankWrBursts::2                  0                       # Per bank write bursts
system.mem_ctrl.perBankWrBursts::3                  0                       # Per bank write bursts
system.mem_ctrl.perBankWrBursts::4                  0                       # Per bank write bursts
system.mem_ctrl.perBankWrBursts::5                  0                       # Per bank write bursts
system.mem_ctrl.perBankWrBursts::6                  0                       # Per bank write bursts
system.mem_ctrl.perBankWrBursts::7                  0                       # Per bank write bursts
system.mem_ctrl.perBankWrBursts::8                  0                       # Per bank write bursts
system.mem_ctrl.perBankWrBursts::9                  0                       # Per bank write bursts
system.mem_ctrl.perBankWrBursts::10                 0                       # Per bank write bursts
system.mem_ctrl.perBankWrBursts::11                 0                       # Per bank write bursts
system.mem_ctrl.perBankWrBursts::12                 0                       # Per bank write bursts
system.mem_ctrl.perBankWrBursts::13                 0                       # Per bank write bursts
system.mem_ctrl.perBankWrBursts::14                 0                       # Per bank write bursts
system.mem_ctrl.perBankWrBursts::15                 0                       # Per bank write bursts
system.mem_ctrl.avgRdQLen                        1.04                       # Average read queue length when enqueuing
system.mem_ctrl.avgWrQLen                        0.73                       # Average write queue length when enqueuing
system.mem_ctrl.totQLat                      16988000                       # Total ticks spent queuing
system.mem_ctrl.totBusLat                     7640000                       # Total ticks spent in databus transfers
system.mem_ctrl.totMemAccLat                 45638000                       # Total ticks spent from burst creation until serviced by the DRAM
system.mem_ctrl.avgQLat                      11117.80                       # Average queueing delay per DRAM burst
system.mem_ctrl.avgBusLat                     5000.00                       # Average bus latency per DRAM burst
system.mem_ctrl.avgMemAccLat                 29867.80                       # Average memory access latency per DRAM burst
system.mem_ctrl.numRdRetry                          0                       # Number of times read queue was full causing retry
system.mem_ctrl.numWrRetry                          0                       # Number of times write queue was full causing retry
system.mem_ctrl.readRowHits                       966                       # Number of row buffer hits during reads
system.mem_ctrl.writeRowHits                        0                       # Number of row buffer hits during writes
system.mem_ctrl.readRowHitRate                  63.22                       # Row buffer hit rate for reads
system.mem_ctrl.writeRowHitRate                  0.00                       # Row buffer hit rate for writes
system.mem_ctrl.readPktSize::0                      0                       # Read request sizes (log2)
system.mem_ctrl.readPktSize::1                      0                       # Read request sizes (log2)
system.mem_ctrl.readPktSize::2                      0                       # Read request sizes (log2)
system.mem_ctrl.readPktSize::3                      0                       # Read request sizes (log2)
system.mem_ctrl.readPktSize::4                      0                       # Read request sizes (log2)
system.mem_ctrl.readPktSize::5                      0                       # Read request sizes (log2)
system.mem_ctrl.readPktSize::6                   1528                       # Read request sizes (log2)
system.mem_ctrl.writePktSize::0                     0                       # Write request sizes (log2)
system.mem_ctrl.writePktSize::1                     0                       # Write request sizes (log2)
system.mem_ctrl.writePktSize::2                     0                       # Write request sizes (log2)
system.mem_ctrl.writePktSize::3                     0                       # Write request sizes (log2)
system.mem_ctrl.writePktSize::4                     0                       # Write request sizes (log2)
system.mem_ctrl.writePktSize::5                     0                       # Write request sizes (log2)
system.mem_ctrl.writePktSize::6                     5                       # Write request sizes (log2)
system.mem_ctrl.rdQLenPdf::0                     1318                       # What read queue length does an incoming req see
system.mem_ctrl.rdQLenPdf::1                      152                       # What read queue length does an incoming req see
system.mem_ctrl.rdQLenPdf::2                       43                       # What read queue length does an incoming req see
system.mem_ctrl.rdQLenPdf::3                       13                       # What read queue length does an incoming req see
system.mem_ctrl.rdQLenPdf::4                        1                       # What read queue length does an incoming req see
system.mem_ctrl.rdQLenPdf::5                        1                       # What read queue length does an incoming req see
system.mem_ctrl.rdQLenPdf::6                        0                       # What read queue length does an incoming req see
system.mem_ctrl.rdQLenPdf::7                        0                       # What read queue length does an incoming req see
system.mem_ctrl.rdQLenPdf::8                        0                       # What read queue length does an incoming req see
system.mem_ctrl.rdQLenPdf::9                        0                       # What read queue length does an incoming req see
system.mem_ctrl.rdQLenPdf::10                       0                       # What read queue length does an incoming req see
system.mem_ctrl.rdQLenPdf::11                       0                       # What read queue length does an incoming req see
system.mem_ctrl.rdQLenPdf::12                       0                       # What read queue length does an incoming req see
system.mem_ctrl.rdQLenPdf::13                       0                       # What read queue length does an incoming req see
system.mem_ctrl.rdQLenPdf::14                       0                       # What read queue length does an incoming req see
system.mem_ctrl.rdQLenPdf::15                       0                       # What read queue length does an incoming req see
system.mem_ctrl.rdQLenPdf::16                       0                       # What read queue length does an incoming req see
system.mem_ctrl.rdQLenPdf::17                       0                       # What read queue length does an incoming req see
system.mem_ctrl.rdQLenPdf::18                       0                       # What read queue length does an incoming req see
system.mem_ctrl.rdQLenPdf::19                       0                       # What read queue length does an incoming req see
system.mem_ctrl.rdQLenPdf::20                       0                       # What read queue length does an incoming req see
system.mem_ctrl.rdQLenPdf::21                       0                       # What read queue length does an incoming req see
system.mem_ctrl.rdQLenPdf::22                       0                       # What read queue length does an incoming req see
system.mem_ctrl.rdQLenPdf::23                       0                       # What read queue length does an incoming req see
system.mem_ctrl.rdQLenPdf::24                       0                       # What read queue length does an incoming req see
system.mem_ctrl.rdQLenPdf::25                       0                       # What read queue length does an incoming req see
system.mem_ctrl.rdQLenPdf::26                       0                       # What read queue length does an incoming req see
system.mem_ctrl.rdQLenPdf::27                       0                       # What read queue length does an incoming req see
system.mem_ctrl.rdQLenPdf::28                       0                       # What read queue length does an incoming req see
system.mem_ctrl.rdQLenPdf::29                       0                       # What read queue length does an incoming req see
system.mem_ctrl.rdQLenPdf::30                       0                       # What read queue length does an incoming req see
system.mem_ctrl.rdQLenPdf::31                       0                       # What read queue length does an incoming req see
system.mem_ctrl.wrQLenPdf::0                        1                       # What write queue length does an incoming req see
system.mem_ctrl.wrQLenPdf::1                        1                       # What write queue length does an incoming req see
system.mem_ctrl.wrQLenPdf::2                        1                       # What write queue length does an incoming req see
system.mem_ctrl.wrQLenPdf::3                        1                       # What write queue length does an incoming req see
system.mem_ctrl.wrQLenPdf::4                        1                       # What write queue length does an incoming req see
system.mem_ctrl.wrQLenPdf::5                        0                       # What write queue length does an incoming req see
system.mem_ctrl.wrQLenPdf::6                        0                       # What write queue length does an incoming req see
system.mem_ctrl.wrQLenPdf::7                        0                       # What write queue length does an incoming req see
system.mem_ctrl.wrQLenPdf::8                        0                       # What write queue length does an incoming req see
system.mem_ctrl.wrQLenPdf::9                        0                       # What write queue length does an incoming req see
system.mem_ctrl.wrQLenPdf::10                       0                       # What write queue length does an incoming req see
system.mem_ctrl.wrQLenPdf::11                       0                       # What write queue length does an incoming req see
system.mem_ctrl.wrQLenPdf::12                       0                       # What write queue length does an incoming req see
system.mem_ctrl.wrQLenPdf::13                       0                       # What write queue length does an incoming req see
system.mem_ctrl.wrQLenPdf::14                       0                       # What write queue length does an incoming req see
system.mem_ctrl.wrQLenPdf::15                       0                       # What write queue length does an incoming req see
system.mem_ctrl.wrQLenPdf::16                       0                       # What write queue length does an incoming req see
system.mem_ctrl.wrQLenPdf::17                       0                       # What write queue length does an incoming req see
system.mem_ctrl.wrQLenPdf::18                       0                       # What write queue length does an incoming req see
system.mem_ctrl.wrQLenPdf::19                       0                       # What write queue length does an incoming req see
system.mem_ctrl.wrQLenPdf::20                       0                       # What write queue length does an incoming req see
system.mem_ctrl.wrQLenPdf::21                       0                       # What write queue length does an incoming req see
system.mem_ctrl.wrQLenPdf::22                       0                       # What write queue length does an incoming req see
system.mem_ctrl.wrQLenPdf::23                       0                       # What write queue length does an incoming req see
system.mem_ctrl.wrQLenPdf::24                       0                       # What write queue length does an incoming req see
system.mem_ctrl.wrQLenPdf::25                       0                       # What write queue length does an incoming req see
system.mem_ctrl.wrQLenPdf::26                       0                       # What write queue length does an incoming req see
system.mem_ctrl.wrQLenPdf::27                       0                       # What write queue length does an incoming req see
system.mem_ctrl.wrQLenPdf::28                       0                       # What write queue length does an incoming req see
system.mem_ctrl.wrQLenPdf::29                       0                       # What write queue length does an incoming req see
system.mem_ctrl.wrQLenPdf::30                       0                       # What write queue length does an incoming req see
system.mem_ctrl.wrQLenPdf::31                       0                       # What write queue length does an incoming req see
system.mem_ctrl.wrQLenPdf::32                       0                       # What write queue length does an incoming req see
system.mem_ctrl.wrQLenPdf::33                       0                       # What write queue length does an incoming req see
system.mem_ctrl.wrQLenPdf::34                       0                       # What write queue length does an incoming req see
system.mem_ctrl.wrQLenPdf::35                       0                       # What write queue length does an incoming req see
system.mem_ctrl.wrQLenPdf::36                       0                       # What write queue length does an incoming req see
system.mem_ctrl.wrQLenPdf::37                       0                       # What write queue length does an incoming req see
system.mem_ctrl.wrQLenPdf::38                       0                       # What write queue length does an incoming req see
system.mem_ctrl.wrQLenPdf::39                       0                       # What write queue length does an incoming req see
system.mem_ctrl.wrQLenPdf::40                       0                       # What write queue length does an incoming req see
system.mem_ctrl.wrQLenPdf::41                       0                       # What write queue length does an incoming req see
system.mem_ctrl.wrQLenPdf::42                       0                       # What write queue length does an incoming req see
system.mem_ctrl.wrQLenPdf::43                       0                       # What write queue length does an incoming req see
system.mem_ctrl.wrQLenPdf::44                       0                       # What write queue length does an incoming req see
system.mem_ctrl.wrQLenPdf::45                       0                       # What write queue length does an incoming req see
system.mem_ctrl.wrQLenPdf::46                       0                       # What write queue length does an incoming req see
system.mem_ctrl.wrQLenPdf::47                       0                       # What write queue length does an incoming req see
system.mem_ctrl.wrQLenPdf::48                       0                       # What write queue length does an incoming req see
system.mem_ctrl.wrQLenPdf::49                       0                       # What write queue length does an incoming req see
system.mem_ctrl.wrQLenPdf::50                       0                       # What write queue length does an incoming req see
system.mem_ctrl.wrQLenPdf::51                       0                       # What write queue length does an incoming req see
system.mem_ctrl.wrQLenPdf::52                       0                       # What write queue length does an incoming req see
system.mem_ctrl.wrQLenPdf::53                       0                       # What write queue length does an incoming req see
system.mem_ctrl.wrQLenPdf::54                       0                       # What write queue length does an incoming req see
system.mem_ctrl.wrQLenPdf::55                       0                       # What write queue length does an incoming req see
system.mem_ctrl.wrQLenPdf::56                       0                       # What write queue length does an incoming req see
system.mem_ctrl.wrQLenPdf::57                       0                       # What write queue length does an incoming req see
system.mem_ctrl.wrQLenPdf::58                       0                       # What write queue length does an incoming req see
system.mem_ctrl.wrQLenPdf::59                       0                       # What write queue length does an incoming req see
system.mem_ctrl.wrQLenPdf::60                       0                       # What write queue length does an incoming req see
system.mem_ctrl.wrQLenPdf::61                       0                       # What write queue length does an incoming req see
system.mem_ctrl.wrQLenPdf::62                       0                       # What write queue length does an incoming req see
system.mem_ctrl.wrQLenPdf::63                       0                       # What write queue length does an incoming req see
system.mem_ctrl.bytesPerActivate::samples          554                       # Bytes accessed per row activation
system.mem_ctrl.bytesPerActivate::mean     174.209386                       # Bytes accessed per row activation
system.mem_ctrl.bytesPerActivate::gmean    145.822416                       # Bytes accessed per row activation
system.mem_ctrl.bytesPerActivate::stdev    144.350085                       # Bytes accessed per row activation
system.mem_ctrl.bytesPerActivate::0-127           106     19.13%     19.13% # Bytes accessed per row activation
system.mem_ctrl.bytesPerActivate::128-255          394     71.12%     90.25% # Bytes accessed per row activation
system.mem_ctrl.bytesPerActivate::256-383           29      5.23%     95.49% # Bytes accessed per row activation
system.mem_ctrl.bytesPerActivate::384-511            5      0.90%     96.39% # Bytes accessed per row activation
system.mem_ctrl.bytesPerActivate::512-639            3      0.54%     96.93% # Bytes accessed per row activation
system.mem_ctrl.bytesPerActivate::640-767            3      0.54%     97.47% # Bytes accessed per row activation
system.mem_ctrl.bytesPerActivate::768-895            3      0.54%     98.01% # Bytes accessed per row activation
system.mem_ctrl.bytesPerActivate::896-1023            5      0.90%     98.92% # Bytes accessed per row activation
system.mem_ctrl.bytesPerActivate::1024-1151            6      1.08%    100.00% # Bytes accessed per row activation
system.mem_ctrl.bytesPerActivate::total           554                       # Bytes accessed per row activation
system.mem_ctrl.bytesReadDRAM                   97792                       # Total number of bytes read from DRAM
system.mem_ctrl.bytesReadWrQ                        0                       # Total number of bytes read from write queue
system.mem_ctrl.bytesWritten                        0                       # Total number of bytes written to DRAM
system.mem_ctrl.bytesReadSys                    97792                       # Total read bytes from the system interface side
system.mem_ctrl.bytesWrittenSys                   320                       # Total written bytes from the system interface side
system.mem_ctrl.avgRdBW                         39.70                       # Average DRAM read bandwidth in MiByte/s
system.mem_ctrl.avgWrBW                          0.00                       # Average achieved write bandwidth in MiByte/s
system.mem_ctrl.avgRdBWSys                      39.70                       # Average system read bandwidth in MiByte/s
system.mem_ctrl.avgWrBWSys                       0.13                       # Average system write bandwidth in MiByte/s
system.mem_ctrl.peakBW                       12800.00                       # Theoretical peak bandwidth in MiByte/s
system.mem_ctrl.busUtil                          0.31                       # Data bus utilization in percentage
system.mem_ctrl.busUtilRead                      0.31                       # Data bus utilization in percentage for reads
system.mem_ctrl.busUtilWrite                     0.00                       # Data bus utilization in percentage for writes
system.mem_ctrl.totGap                     2463136000                       # Total gap between requests
system.mem_ctrl.avgGap                     1606742.34                       # Average gap between requests
system.mem_ctrl.masterReadBytes::.cpu.inst        21504                       # Per-master bytes read from memory
system.mem_ctrl.masterReadBytes::.cpu.data        76288                       # Per-master bytes read from memory
system.mem_ctrl.masterReadRate::.cpu.inst 8730305.658134480938                       # Per-master bytes read from memory rate (Bytes/sec)
system.mem_ctrl.masterReadRate::.cpu.data 30971798.644334234297                       # Per-master bytes read from memory rate (Bytes/sec)
system.mem_ctrl.masterReadAccesses::.cpu.inst          336                       # Per-master read serviced memory accesses
system.mem_ctrl.masterReadAccesses::.cpu.data         1192                       # Per-master read serviced memory accesses
system.mem_ctrl.masterWriteAccesses::.writebacks            5                       # Per-master write serviced memory accesses
system.mem_ctrl.masterReadTotalLat::.cpu.inst      9952500                       # Per-master read total memory access latency
system.mem_ctrl.masterReadTotalLat::.cpu.data     35685500                       # Per-master read total memory access latency
system.mem_ctrl.masterReadAvgLat::.cpu.inst     29620.54                       # Per-master read average memory access latency
system.mem_ctrl.masterReadAvgLat::.cpu.data     29937.50                       # Per-master read average memory access latency
system.mem_ctrl.masterWriteAvgLat::.writebacks         0.00                       # Per-master write average memory access latency
system.mem_ctrl.pageHitRate                     63.01                       # Row buffer hit rate, read and write combined
system.mem_ctrl.rank1.actEnergy                999600                       # Energy for activate commands per rank (pJ)
system.mem_ctrl.rank1.preEnergy                519915                       # Energy for precharge commands per rank (pJ)
system.mem_ctrl.rank1.readEnergy              2570400                       # Energy for read commands per rank (pJ)
system.mem_ctrl.rank1.writeEnergy                   0                       # Energy for write commands per rank (pJ)
system.mem_ctrl.rank1.refreshEnergy      194226240.000000                       # Energy for refresh commands per rank (pJ)
system.mem_ctrl.rank1.actBackEnergy         254808240                       # Energy for active background per rank (pJ)
system.mem_ctrl.rank1.preBackEnergy         731272320                       # Energy for precharge background per rank (pJ)
system.mem_ctrl.rank1.actPowerDownEnergy            0                       # Energy for active power-down per rank (pJ)
system.mem_ctrl.rank1.prePowerDownEnergy            0                       # Energy for precharge power-down per rank (pJ)
system.mem_ctrl.rank1.selfRefreshEnergy             0                       # Energy for self refresh per rank (pJ)
system.mem_ctrl.rank1.totalEnergy          1184396715                       # Total energy per rank (pJ)
system.mem_ctrl.rank1.averagePower         480.847533                       # Core power per rank (mW)
system.mem_ctrl.rank1.totalIdleTime                 0                       # Total Idle time Per DRAM Rank
system.mem_ctrl.rank1.memoryStateTime::IDLE   1898799000                       # Time in different power states
system.mem_ctrl.rank1.memoryStateTime::REF     82160000                       # Time in different power states
system.mem_ctrl.rank1.memoryStateTime::SREF            0                       # Time in different power states
system.mem_ctrl.rank1.memoryStateTime::PRE_PDN            0                       # Time in different power states
[...]
system.cpu.icache.overall_mshr_misses::total          336                       # number of overall MSHR misses
system.cpu.icache.demand_mshr_miss_latency::.cpu.inst     20765000                       # number of demand (read+write) MSHR miss cycles
system.cpu.icache.demand_mshr_miss_latency::total     20765000                       # number of demand (read+write) MSHR miss cycles
system.cpu.icache.overall_mshr_miss_latency::.cpu.inst     20765000                       # number of overall MSHR miss cycles
system.cpu.icache.overall_mshr_miss_latency::total     20765000                       # number of overall MSHR miss cycles
system.cpu.icache.demand_mshr_miss_rate::.cpu.inst     0.000556                       # mshr miss rate for demand accesses
system.cpu.icache.demand_mshr_miss_rate::total     0.000556                       # mshr miss rate for demand accesses
system.cpu.icache.overall_mshr_miss_rate::.cpu.inst     0.000556                       # mshr miss rate for overall accesses
system.cpu.icache.overall_mshr_miss_rate::total     0.000556                       # mshr miss rate for overall accesses
system.cpu.icache.demand_avg_mshr_miss_latency::.cpu.inst 61800.595238                       # average overall mshr miss latency
system.cpu.icache.demand_avg_mshr_miss_latency::total 61800.595238                       # average overall mshr miss latency
system.cpu.icache.overall_avg_mshr_miss_latency::.cpu.inst 61800.595238                       # average overall mshr miss latency
system.cpu.icache.overall_avg_mshr_miss_latency::total 61800.595238                       # average overall mshr miss latency
system.cpu.icache.replacements                      0                       # number of replacements
system.cpu.icache.ReadReq_hits::.cpu.inst       604058                       # number of ReadReq hits
system.cpu.icache.ReadReq_hits::total          604058                       # number of ReadReq hits
system.cpu.icache.ReadReq_misses::.cpu.inst          432                       # number of ReadReq misses
system.cpu.icache.ReadReq_misses::total           432                       # number of ReadReq misses
system.cpu.icache.ReadReq_miss_latency::.cpu.inst     25059000                       # number of ReadReq miss cycles
system.cpu.icache.ReadReq_miss_latency::total     25059000                       # number of ReadReq miss cycles
system.cpu.icache.ReadReq_accesses::.cpu.inst       604490                       # number of ReadReq accesses(hits+misses)
system.cpu.icache.ReadReq_accesses::total       604490                       # number of ReadReq accesses(hits+misses)
system.cpu.icache.ReadReq_miss_rate::.cpu.inst     0.000715                       # miss rate for ReadReq accesses
system.cpu.icache.ReadReq_miss_rate::total     0.000715                       # miss rate for ReadReq accesses
system.cpu.icache.ReadReq_avg_miss_latency::.cpu.inst 58006.944444                       # average ReadReq miss latency
system.cpu.icache.ReadReq_avg_miss_latency::total 58006.944444                       # average ReadReq miss latency
system.cpu.icache.ReadReq_mshr_hits::.cpu.inst           96                       # number of ReadReq MSHR hits
system.cpu.icache.ReadReq_mshr_hits::total           96                       # number of ReadReq MSHR hits
system.cpu.icache.ReadReq_mshr_misses::.cpu.inst          336                       # number of ReadReq MSHR misses
system.cpu.icache.ReadReq_mshr_misses::total          336                       # number of ReadReq MSHR misses
system.cpu.icache.ReadReq_mshr_miss_latency::.cpu.inst     20765000                       # number of ReadReq MSHR miss cycles
system.cpu.icache.ReadReq_mshr_miss_latency::total     20765000                       # number of ReadReq MSHR miss cycles
system.cpu.icache.ReadReq_mshr_miss_rate::.cpu.inst     0.000556                       # mshr miss rate for ReadReq accesses
system.cpu.icache.ReadReq_mshr_miss_rate::total     0.000556                       # mshr miss rate for ReadReq accesses
system.cpu.icache.ReadReq_avg_mshr_miss_latency::.cpu.inst 61800.595238                       # average ReadReq mshr miss latency
system.cpu.icache.ReadReq_avg_mshr_miss_latency::total 61800.595238                       # average ReadReq mshr miss latency
system.cpu.icache.tags.pwrStateResidencyTicks::UNDEFINED   2463144000                       # Cumulative time (in ticks) in various power states
system.cpu.icache.tags.tagsinuse           310.597697                       # Cycle average of tags in use
system.cpu.icache.tags.total_refs              604393                       # Total number of references to valid blocks.
system.cpu.icache.tags.sampled_refs               335                       # Sample count of references to valid blocks.
system.cpu.icache.tags.avg_refs           1804.158209                       # Average number of references to valid blocks.
system.cpu.icache.tags.warmup_cycle             77000                       # Cycle when the warmup percentage was hit.
system.cpu.icache.tags.occ_blocks::.cpu.inst   310.597697                       # Average occupied blocks per requestor
system.cpu.icache.tags.occ_percent::.cpu.inst     0.151659                       # Average percentage of cache occupancy
system.cpu.icache.tags.occ_percent::total     0.151659                       # Average percentage of cache occupancy
system.cpu.icache.tags.occ_task_id_blocks::1024          335                       # Occupied blocks per task id
system.cpu.icache.tags.age_task_id_blocks_1024::0           23                       # Occupied blocks per task id
system.cpu.icache.tags.age_task_id_blocks_1024::3          312                       # Occupied blocks per task id
system.cpu.icache.tags.occ_task_id_percent::1024     0.163574                       # Percentage of cache occupancy per task id
system.cpu.icache.tags.tag_accesses           1209315                       # Number of tag accesses
system.cpu.icache.tags.data_accesses          1209315                       # Number of data accesses
system.cpu.dtb.walker.pwrStateResidencyTicks::UNDEFINED   2463144000                       # Cumulative time (in ticks) in various power states
system.cpu.interrupts.clk_domain.clock          16000                       # Clock period in ticks
system.cpu.itb.walker.pwrStateResidencyTicks::UNDEFINED   2463144000                       # Cumulative time (in ticks) in various power states
system.cpu.dcache.pwrStateResidencyTicks::UNDEFINED   2463144000                       # Cumulative time (in ticks) in various power states
system.cpu.dcache.demand_hits::.cpu.data       817596                       # number of demand (read+write) hits
system.cpu.dcache.demand_hits::total           817596                       # number of demand (read+write) hits
system.cpu.dcache.overall_hits::.cpu.data       817596                       # number of overall hits
system.cpu.dcache.overall_hits::total          817596                       # number of overall hits
system.cpu.dcache.demand_misses::.cpu.data         2590                       # number of demand (read+write) misses
system.cpu.dcache.demand_misses::total           2590                       # number of demand (read+write) misses
system.cpu.dcache.overall_misses::.cpu.data         2590                       # number of overall misses
system.cpu.dcache.overall_misses::total          2590                       # number of overall misses
system.cpu.dcache.demand_miss_latency::.cpu.data    144357000                       # number of demand (read+write) miss cycles
system.cpu.dcache.demand_miss_latency::total    144357000                       # number of demand (read+write) miss cycles
system.cpu.dcache.overall_miss_latency::.cpu.data    144357000                       # number of overall miss cycles
system.cpu.dcache.overall_miss_latency::total    144357000                       # number of overall miss cycles
system.cpu.dcache.demand_accesses::.cpu.data       820186                       # number of demand (read+write) accesses
system.cpu.dcache.demand_accesses::total       820186                       # number of demand (read+write) accesses
system.cpu.dcache.overall_accesses::.cpu.data       820186                       # number of overall (read+write) accesses
system.cpu.dcache.overall_accesses::total       820186                       # number of overall (read+write) accesses
system.cpu.dcache.demand_miss_rate::.cpu.data     0.003158                       # miss rate for demand accesses
system.cpu.dcache.demand_miss_rate::total     0.003158                       # miss rate for demand accesses
system.cpu.dcache.overall_miss_rate::.cpu.data     0.003158                       # miss rate for overall accesses
system.cpu.dcache.overall_miss_rate::total     0.003158                       # miss rate for overall accesses
system.cpu.dcache.demand_avg_miss_latency::.cpu.data 55736.293436                       # average overall miss latency
system.cpu.dcache.demand_avg_miss_latency::total 55736.293436                       # average overall miss latency
system.cpu.dcache.overall_avg_miss_latency::.cpu.data 55736.293436                       # average overall miss latency
system.cpu.dcache.overall_avg_miss_latency::total 55736.293436                       # average overall miss latency
system.cpu.dcache.blocked_cycles::no_mshrs          131                       # number of cycles access was blocked
system.cpu.dcache.blocked_cycles::no_targets            0                       # number of cycles access was blocked
system.cpu.dcache.blocked::no_mshrs                 6                       # number of cycles access was blocked
system.cpu.dcache.blocked::no_targets               0                       # number of cycles access was blocked
system.cpu.dcache.avg_blocked_cycles::no_mshrs    21.833333                       # average number of cycles each access was blocked
system.cpu.dcache.avg_blocked_cycles::no_targets          nan                       # average number of cycles each access was blocked
system.cpu.dcache.writebacks::.writebacks            5                       # number of writebacks
system.cpu.dcache.writebacks::total                 5                       # number of writebacks
system.cpu.dcache.demand_mshr_hits::.cpu.data         1398                       # number of demand (read+write) MSHR hits
system.cpu.dcache.demand_mshr_hits::total         1398                       # number of demand (read+write) MSHR hits
system.cpu.dcache.overall_mshr_hits::.cpu.data         1398                       # number of overall MSHR hits
system.cpu.dcache.overall_mshr_hits::total         1398                       # number of overall MSHR hits
system.cpu.dcache.demand_mshr_misses::.cpu.data         1192                       # number of demand (read+write) MSHR misses
system.cpu.dcache.demand_mshr_misses::total         1192                       # number of demand (read+write) MSHR misses
system.cpu.dcache.overall_mshr_misses::.cpu.data         1192                       # number of overall MSHR misses
system.cpu.dcache.overall_mshr_misses::total         1192                       # number of overall MSHR misses
system.cpu.dcache.demand_mshr_miss_latency::.cpu.data     74253000                       # number of demand (read+write) MSHR miss cycles
system.cpu.dcache.demand_mshr_miss_latency::total     74253000                       # number of demand (read+write) MSHR miss cycles
system.cpu.dcache.overall_mshr_miss_latency::.cpu.data     74253000                       # number of overall MSHR miss cycles
system.cpu.dcache.overall_mshr_miss_latency::total     74253000                       # number of overall MSHR miss cycles
system.cpu.dcache.demand_mshr_miss_rate::.cpu.data     0.001453                       # mshr miss rate for demand accesses
system.cpu.dcache.demand_mshr_miss_rate::total     0.001453                       # mshr miss rate for demand accesses
system.cpu.dcache.overall_mshr_miss_rate::.cpu.data     0.001453                       # mshr miss rate for overall accesses
system.cpu.dcache.overall_mshr_miss_rate::total     0.001453                       # mshr miss rate for overall accesses
system.cpu.dcache.demand_avg_mshr_miss_latency::.cpu.data 62292.785235                       # average overall mshr miss latency
system.cpu.dcache.demand_avg_mshr_miss_latency::total 62292.785235                       # average overall mshr miss latency
system.cpu.dcache.overall_avg_mshr_miss_latency::.cpu.data 62292.785235                       # average overall mshr miss latency
system.cpu.dcache.overall_avg_mshr_miss_latency::total 62292.785235                       # average overall mshr miss latency
system.cpu.dcache.replacements                     22                       # number of replacements
system.cpu.dcache.ReadReq_hits::.cpu.data       489336                       # number of ReadReq hits
system.cpu.dcache.ReadReq_hits::total          489336                       # number of ReadReq hits
system.cpu.dcache.ReadReq_misses::.cpu.data         2004                       # number of ReadReq misses
system.cpu.dcache.ReadReq_misses::total          2004                       # number of ReadReq misses
system.cpu.dcache.ReadReq_miss_latency::.cpu.data    108045000                       # number of ReadReq miss cycles
system.cpu.dcache.ReadReq_miss_latency::total    108045000                       # number of ReadReq miss cycles
system.cpu.dcache.ReadReq_accesses::.cpu.data       491340                       # number of ReadReq accesses(hits+misses)
system.cpu.dcache.ReadReq_accesses::total       491340                       # number of ReadReq accesses(hits+misses)
system.cpu.dcache.ReadReq_miss_rate::.cpu.data     0.004079                       # miss rate for ReadReq accesses
system.cpu.dcache.ReadReq_miss_rate::total     0.004079                       # miss rate for ReadReq accesses
system.cpu.dcache.ReadReq_avg_miss_latency::.cpu.data 53914.670659                       # average ReadReq miss latency
system.cpu.dcache.ReadReq_avg_miss_latency::total 53914.670659                       # average ReadReq miss latency
system.cpu.dcache.ReadReq_mshr_hits::.cpu.data         1346                       # number of ReadReq MSHR hits
system.cpu.dcache.ReadReq_mshr_hits::total         1346                       # number of ReadReq MSHR hits
system.cpu.dcache.ReadReq_mshr_misses::.cpu.data          658                       # number of ReadReq MSHR misses
system.cpu.dcache.ReadReq_mshr_misses::total          658                       # number of ReadReq MSHR misses
system.cpu.dcache.ReadReq_mshr_miss_latency::.cpu.data     41012000                       # number of ReadReq MSHR miss cycles
system.cpu.dcache.ReadReq_mshr_miss_latency::total     41012000                       # number of ReadReq MSHR miss cycles
system.cpu.dcache.ReadReq_mshr_miss_rate::.cpu.data     0.001339                       # mshr miss rate for ReadReq accesses
system.cpu.dcache.ReadReq_mshr_miss_rate::total     0.001339                       # mshr miss rate for ReadReq accesses
system.cpu.dcache.ReadReq_avg_mshr_miss_latency::.cpu.data 62328.267477                       # average ReadReq mshr miss latency
system.cpu.dcache.ReadReq_avg_mshr_miss_latency::total 62328.267477                       # average ReadReq mshr miss latency
system.cpu.dcache.WriteReq_hits::.cpu.data       328260                       # number of WriteReq hits
system.cpu.dcache.WriteReq_hits::total         328260                       # number of WriteReq hits
system.cpu.dcache.WriteReq_misses::.cpu.data          586                       # number of WriteReq misses
system.cpu.dcache.WriteReq_misses::total          586                       # number of WriteReq misses
system.cpu.dcache.WriteReq_miss_latency::.cpu.data     36312000                       # number of WriteReq miss cycles
system.cpu.dcache.WriteReq_miss_latency::total     36312000                       # number of WriteReq miss cycles
system.cpu.dcache.WriteReq_accesses::.cpu.data       328846                       # number of WriteReq accesses(hits+misses)
system.cpu.dcache.WriteReq_accesses::total       328846                       # number of WriteReq accesses(hits+misses)
system.cpu.dcache.WriteReq_miss_rate::.cpu.data     0.001782                       # miss rate for WriteReq accesses
system.cpu.dcache.WriteReq_miss_rate::total     0.001782                       # miss rate for WriteReq accesses
system.cpu.dcache.WriteReq_avg_miss_latency::.cpu.data 61965.870307                       # average WriteReq miss latency
system.cpu.dcache.WriteReq_avg_miss_latency::total 61965.870307                       # average WriteReq miss latency
system.cpu.dcache.WriteReq_mshr_hits::.cpu.data           52                       # number of WriteReq MSHR hits
system.cpu.dcache.WriteReq_mshr_hits::total           52                       # number of WriteReq MSHR hits
system.cpu.dcache.WriteReq_mshr_misses::.cpu.data          534                       # number of WriteReq MSHR misses
system.cpu.dcache.WriteReq_mshr_misses::total          534                       # number of WriteReq MSHR misses
system.cpu.dcache.WriteReq_mshr_miss_latency::.cpu.data     33241000                       # number of WriteReq MSHR miss cycles
system.cpu.dcache.WriteReq_mshr_miss_latency::total     33241000                       # number of WriteReq MSHR miss cycles
system.cpu.dcache.WriteReq_mshr_miss_rate::.cpu.data     0.001624                       # mshr miss rate for WriteReq accesses
system.cpu.dcache.WriteReq_mshr_miss_rate::total     0.001624                       # mshr miss rate for WriteReq accesses
system.cpu.dcache.WriteReq_avg_mshr_miss_latency::.cpu.data 62249.063670                       # average WriteReq mshr miss latency
system.cpu.dcache.WriteReq_avg_mshr_miss_latency::total 62249.063670                       # average WriteReq mshr miss latency
system.cpu.dcache.tags.pwrStateResidencyTicks::UNDEFINED   2463144000                       # Cumulative time (in ticks) in various power states
system.cpu.dcache.tags.tagsinuse           711.811681                       # Cycle average of tags in use
system.cpu.dcache.tags.total_refs              818788                       # Total number of references to valid blocks.
system.cpu.dcache.tags.sampled_refs              1192                       # Sample count of references to valid blocks.
system.cpu.dcache.tags.avg_refs            686.902685                       # Average number of references to valid blocks.
system.cpu.dcache.tags.warmup_cycle            150000                       # Cycle when the warmup percentage was hit.
system.cpu.dcache.tags.occ_blocks::.cpu.data   711.811681                       # Average occupied blocks per requestor
system.cpu.dcache.tags.occ_percent::.cpu.data     0.347564                       # Average percentage of cache occupancy
system.cpu.dcache.tags.occ_percent::total     0.347564                       # Average percentage of cache occupancy
system.cpu.dcache.tags.occ_task_id_blocks::1024         1170                       # Occupied blocks per task id
system.cpu.dcache.tags.age_task_id_blocks_1024::0           20                       # Occupied blocks per task id
system.cpu.dcache.tags.age_task_id_blocks_1024::2          358                       # Occupied blocks per task id
system.cpu.dcache.tags.age_task_id_blocks_1024::3          792                       # Occupied blocks per task id
system.cpu.dcache.tags.occ_task_id_percent::1024     0.571289                       # Percentage of cache occupancy per task id
system.cpu.dcache.tags.tag_accesses           1641564                       # Number of tag accesses
system.cpu.dcache.tags.data_accesses          1641564                       # Number of data accesses

---------- End Simulation Statistics   ----------
