
---------- Begin Simulation Statistics ----------
final_tick                                22906737000                       # Number of ticks from beginning of simulation (restored from checkpoints and never reset)
host_inst_rate                                 108259                       # Simulator instruction rate (inst/s)
host_mem_usage                                 792284                       # Number of bytes of host memory used
host_op_rate                                   215590                       # Simulator op (including micro ops) rate (op/s)
host_seconds                                   103.30                       # Real time elapsed on the host
host_tick_rate                              221753228                       # Simulator tick rate (ticks/s)
sim_freq                                 1000000000000                       # Frequency of simulated ticks
sim_insts                                    11182921                       # Number of instructions simulated
sim_ops                                      22270118                       # Number of ops (including micro ops) simulated
sim_seconds                                  0.022907                       # Number of seconds simulated
sim_ticks                                 22906737000                       # Number of ticks simulated
system.cpu.branchPred.BTBCorrect                    0                       # Number of correct BTB predictions (this stat may not work properly.
system.cpu.branchPred.BTBHitPct              0.000000                       # BTB Hit Percentage
system.cpu.branchPred.BTBHits                       0                       # Number of BTB hits
system.cpu.branchPred.BTBLookups              1647058                       # Number of BTB lookups
system.cpu.branchPred.RASInCorrect                  1                       # Number of incorrect RAS predictions.
system.cpu.branchPred.condIncorrect             25405                       # Number of conditional branches incorrect
system.cpu.branchPred.condPredicted           1671654                       # Number of conditional branches predicted
system.cpu.branchPred.indirectHits            1644011                       # Number of indirect target hits.
system.cpu.branchPred.indirectLookups         1647058                       # Number of indirect predictor lookups.
system.cpu.branchPred.indirectMisses             3047                       # Number of indirect misses.
system.cpu.branchPred.lookups                 1673233                       # Number of BP lookups
system.cpu.branchPred.usedRAS                     653                       # Number of times the RAS was used to get a target.
system.cpu.branchPredindirectMispredicted          547                       # Number of mispredicted indirect branches.
system.cpu.cc_regfile_reads                   8029377                       # number of cc regfile reads
system.cpu.cc_regfile_writes                  6532720                       # number of cc regfile writes
system.cpu.commit.amos                              0                       # Number of atomic instructions committed
system.cpu.commit.branchMispredicts             25405                       # The number of times a branch was mispredicted
system.cpu.commit.branches                    1598763                       # Number of branches committed
system.cpu.commit.bw_lim_events               2140771                       # number cycles where commit BW limit reached
system.cpu.commit.commitNonSpecStalls               8                       # The number of times commit has been forced to stall to communicate backwards
system.cpu.commit.commitSquashedInsts          314289                       # The number of squashed insts skipped by commit
system.cpu.commit.committedInsts             11182921                       # Number of instructions committed
system.cpu.commit.committedOps               22270118                       # Number of ops (including micro ops) committed
system.cpu.commit.committed_per_cycle::samples     22854053                       # Number of insts commited each cycle
system.cpu.commit.committed_per_cycle::mean     0.974449                       # Number of insts commited each cycle
system.cpu.commit.committed_per_cycle::stdev     2.394308                       # Number of insts commited each cycle
system.cpu.commit.committed_per_cycle::underflows            0      0.00%      0.00% # Number of insts commited each cycle
system.cpu.commit.committed_per_cycle::0     18102760     79.21%     79.21% # Number of insts commited each cycle
system.cpu.commit.committed_per_cycle::1      1697096      7.43%     86.64% # Number of insts commited each cycle
system.cpu.commit.committed_per_cycle::2       159247      0.70%     87.33% # Number of insts commited each cycle
system.cpu.commit.committed_per_cycle::3        76760      0.34%     87.67% # Number of insts commited each cycle
system.cpu.commit.committed_per_cycle::4       557508      2.44%     90.11% # Number of insts commited each cycle
system.cpu.commit.committed_per_cycle::5        57009      0.25%     90.36% # Number of insts commited each cycle
system.cpu.commit.committed_per_cycle::6        57311      0.25%     90.61% # Number of insts commited each cycle
system.cpu.commit.committed_per_cycle::7         5591      0.02%     90.63% # Number of insts commited each cycle
system.cpu.commit.committed_per_cycle::8      2140771      9.37%    100.00% # Number of insts commited each cycle
system.cpu.commit.committed_per_cycle::overflows            0      0.00%    100.00% # Number of insts commited each cycle
system.cpu.commit.committed_per_cycle::min_value            0                       # Number of insts commited each cycle
system.cpu.commit.committed_per_cycle::max_value            8                       # Number of insts commited each cycle
system.cpu.commit.committed_per_cycle::total     22854053                       # Number of insts commited each cycle
system.cpu.commit.fp_insts                    9411436                       # Number of committed floating point instructions.
system.cpu.commit.function_calls                   87                       # Number of function calls committed.
system.cpu.commit.int_insts                  16004073                       # Number of committed integer instructions.
system.cpu.commit.loads                       4718618                       # Number of loads committed
system.cpu.commit.membars                           0                       # Number of memory barriers committed
system.cpu.commit.op_class_0::No_OpClass           43      0.00%      0.00% # Class of committed instruction
system.cpu.commit.op_class_0::IntAlu         11308977     50.78%     50.78% # Class of committed instruction
system.cpu.commit.op_class_0::IntMult               5      0.00%     50.78% # Class of committed instruction
system.cpu.commit.op_class_0::IntDiv               21      0.00%     50.78% # Class of committed instruction
system.cpu.commit.op_class_0::FloatAdd        3096086     13.90%     64.68% # Class of committed instruction
system.cpu.commit.op_class_0::FloatCmp              0      0.00%     64.68% # Class of committed instruction
system.cpu.commit.op_class_0::FloatCvt              0      0.00%     64.68% # Class of committed instruction
system.cpu.commit.op_class_0::FloatMult             0      0.00%     64.68% # Class of committed instruction
system.cpu.commit.op_class_0::FloatMultAcc            0      0.00%     64.68% # Class of committed instruction
system.cpu.commit.op_class_0::FloatDiv              0      0.00%     64.68% # Class of committed instruction
system.cpu.commit.op_class_0::FloatMisc             0      0.00%     64.68% # Class of committed instruction
system.cpu.commit.op_class_0::FloatSqrt             0      0.00%     64.68% # Class of committed instruction
system.cpu.commit.op_class_0::SimdAdd               0      0.00%     64.68% # Class of committed instruction
system.cpu.commit.op_class_0::SimdAddAcc            0      0.00%     64.68% # Class of committed instruction
system.cpu.commit.op_class_0::SimdAlu              44      0.00%     64.68% # Class of committed instruction
system.cpu.commit.op_class_0::SimdCmp               0      0.00%     64.68% # Class of committed instruction
system.cpu.commit.op_class_0::SimdCvt              30      0.00%     64.68% # Class of committed instruction
system.cpu.commit.op_class_0::SimdMisc             44      0.00%     64.68% # Class of committed instruction
system.cpu.commit.op_class_0::SimdMult              0      0.00%     64.68% # Class of committed instruction
system.cpu.commit.op_class_0::SimdMultAcc            0      0.00%     64.68% # Class of committed instruction
system.cpu.commit.op_class_0::SimdShift             0      0.00%     64.68% # Class of committed instruction
system.cpu.commit.op_class_0::SimdShiftAcc            0      0.00%     64.68% # Class of committed instruction
system.cpu.commit.op_class_0::SimdDiv               0      0.00%     64.68% # Class of committed instruction
system.cpu.commit.op_class_0::SimdSqrt              0      0.00%     64.68% # Class of committed instruction
system.cpu.commit.op_class_0::SimdFloatAdd      1572618      7.06%     71.75% # Class of committed instruction
system.cpu.commit.op_class_0::SimdFloatAlu            0      0.00%     71.75% # Class of committed instruction
system.cpu.commit.op_class_0::SimdFloatCmp            0      0.00%     71.75% # Class of committed instruction
system.cpu.commit.op_class_0::SimdFloatCvt            0      0.00%     71.75% # Class of committed instruction
system.cpu.commit.op_class_0::SimdFloatDiv            0      0.00%     71.75% # Class of committed instruction
system.cpu.commit.op_class_0::SimdFloatMisc            0      0.00%     71.75% # Class of committed instruction
system.cpu.commit.op_class_0::SimdFloatMult      1548042      6.95%     78.70% # Class of committed instruction
system.cpu.commit.op_class_0::SimdFloatMultAcc            0      0.00%     78.70% # Class of committed instruction
system.cpu.commit.op_class_0::SimdFloatSqrt            0      0.00%     78.70% # Class of committed instruction
system.cpu.commit.op_class_0::SimdReduceAdd            0      0.00%     78.70% # Class of committed instruction
system.cpu.commit.op_class_0::SimdReduceAlu            0      0.00%     78.70% # Class of committed instruction
system.cpu.commit.op_class_0::SimdReduceCmp            0      0.00%     78.70% # Class of committed instruction
system.cpu.commit.op_class_0::SimdFloatReduceAdd            0      0.00%     78.70% # Class of committed instruction
system.cpu.commit.op_class_0::SimdFloatReduceCmp            0      0.00%     78.70% # Class of committed instruction
system.cpu.commit.op_class_0::SimdAes               0      0.00%     78.70% # Class of committed instruction
system.cpu.commit.op_class_0::SimdAesMix            0      0.00%     78.70% # Class of committed instruction
system.cpu.commit.op_class_0::SimdSha1Hash            0      0.00%     78.70% # Class of committed instruction
system.cpu.commit.op_class_0::SimdSha1Hash2            0      0.00%     78.70% # Class of committed instruction
system.cpu.commit.op_class_0::SimdSha256Hash            0      0.00%     78.70% # Class of committed instruction
system.cpu.commit.op_class_0::SimdSha256Hash2            0      0.00%     78.70% # Class of committed instruction
system.cpu.commit.op_class_0::SimdShaSigma2            0      0.00%     78.70% # Class of committed instruction
system.cpu.commit.op_class_0::SimdShaSigma3            0      0.00%     78.70% # Class of committed instruction
system.cpu.commit.op_class_0::SimdPredAlu            0      0.00%     78.70% # Class of committed instruction
system.cpu.commit.op_class_0::MemRead         1597932      7.18%     85.87% # Class of committed instruction
system.cpu.commit.op_class_0::MemWrite            862      0.00%     85.88% # Class of committed instruction
system.cpu.commit.op_class_0::FloatMemRead      3120686     14.01%     99.89% # Class of committed instruction
system.cpu.commit.op_class_0::FloatMemWrite        24728      0.11%    100.00% # Class of committed instruction
system.cpu.commit.op_class_0::IprAccess             0      0.00%    100.00% # Class of committed instruction
system.cpu.commit.op_class_0::InstPrefetch            0      0.00%    100.00% # Class of committed instruction
system.cpu.commit.op_class_0::total          22270118                       # Class of committed instruction
system.cpu.commit.refs                        4744208                       # Number of memory references committed
system.cpu.commit.swp_count                         0                       # Number of s/w prefetches committed
system.cpu.commit.vec_insts                         0                       # Number of committed Vector instructions.
system.cpu.committedInsts                    11182921                       # Number of Instructions Simulated
system.cpu.committedOps                      22270118                       # Number of Ops (including micro ops) Simulated
system.cpu.cpi                               2.048368                       # CPI: Cycles Per Instruction
system.cpu.cpi_total                         2.048368                       # CPI: Total CPI of All Threads
system.cpu.decode.BlockedCycles              18635181                       # Number of cycles decode is blocked
system.cpu.decode.DecodedInsts               22865050                       # Number of instructions handled by decode
system.cpu.decode.IdleCycles                  1230744                       # Number of cycles decode is idle
system.cpu.decode.RunCycles                   1522434                       # Number of cycles decode is running
system.cpu.decode.SquashCycles                  25412                       # Number of cycles decode is squashing
system.cpu.decode.UnblockCycles               1487779                       # Number of cycles decode is unblocking
system.cpu.dtb.rdAccesses                     4858998                       # TLB accesses on read requests
system.cpu.dtb.rdMisses                        124474                       # TLB misses on read requests
system.cpu.dtb.wrAccesses                       26212                       # TLB accesses on write requests
system.cpu.dtb.wrMisses                            19                       # TLB misses on write requests
system.cpu.fetch.Branches                     1673233                       # Number of branches that fetch encountered
system.cpu.fetch.CacheLines                   3317881                       # Number of cache lines fetched
system.cpu.fetch.Cycles                      19537433                       # Number of cycles fetch has run and was not squashing or blocked
system.cpu.fetch.IcacheSquashes                  5859                       # Number of outstanding Icache misses that were squashed
system.cpu.fetch.Insts                       11771979                       # Number of instructions fetch has processed
system.cpu.fetch.MiscStallCycles                    4                       # Number of cycles fetch has spent waiting on interrupts, or bad addresses, or out of MSHRs
system.cpu.fetch.PendingQuiesceStallCycles           13                       # Number of stall cycles due to pending quiesce instructions
system.cpu.fetch.PendingTrapStallCycles             3                       # Number of stall cycles due to pending traps
system.cpu.fetch.SquashCycles                   50824                       # Number of cycles fetch has spent squashing
system.cpu.fetch.branchRate                  0.073045                       # Number of branch fetches per cycle
system.cpu.fetch.icacheStallCycles            3338685                       # Number of cycles fetch is stalled on an Icache miss
system.cpu.fetch.predictedBranches            1644664                       # Number of branches that fetch has predicted taken
system.cpu.fetch.rate                        0.513909                       # Number of inst fetches per cycle
system.cpu.fetch.rateDist::samples           22901550                       # Number of instructions fetched each cycle (Total)
system.cpu.fetch.rateDist::mean              1.023677                       # Number of instructions fetched each cycle (Total)
system.cpu.fetch.rateDist::stdev             2.409183                       # Number of instructions fetched each cycle (Total)
system.cpu.fetch.rateDist::underflows               0      0.00%      0.00% # Number of instructions fetched each cycle (Total)
system.cpu.fetch.rateDist::0                 19050169     83.18%     83.18% # Number of instructions fetched each cycle (Total)
system.cpu.fetch.rateDist::1                      397      0.00%     83.18% # Number of instructions fetched each cycle (Total)
system.cpu.fetch.rateDist::2                   415159      1.81%     85.00% # Number of instructions fetched each cycle (Total)
system.cpu.fetch.rateDist::3                      346      0.00%     85.00% # Number of instructions fetched each cycle (Total)
system.cpu.fetch.rateDist::4                   448915      1.96%     86.96% # Number of instructions fetched each cycle (Total)
system.cpu.fetch.rateDist::5                      794      0.00%     86.96% # Number of instructions fetched each cycle (Total)
system.cpu.fetch.rateDist::6                  1536740      6.71%     93.67% # Number of instructions fetched each cycle (Total)
system.cpu.fetch.rateDist::7                      265      0.00%     93.67% # Number of instructions fetched each cycle (Total)
system.cpu.fetch.rateDist::8                  1448765      6.33%    100.00% # Number of instructions fetched each cycle (Total)
system.cpu.fetch.rateDist::overflows                0      0.00%    100.00% # Number of instructions fetched each cycle (Total)
system.cpu.fetch.rateDist::min_value                0                       # Number of instructions fetched each cycle (Total)
system.cpu.fetch.rateDist::max_value                8                       # Number of instructions fetched each cycle (Total)
system.cpu.fetch.rateDist::total             22901550                       # Number of instructions fetched each cycle (Total)
system.cpu.fp_regfile_reads                   9486782                       # number of floating regfile reads
system.cpu.fp_regfile_writes                  9423454                       # number of floating regfile writes
system.cpu.idleCycles                            5188                       # Total number of cycles that the CPU has spent unscheduled due to idling
system.cpu.iew.branchMispredicts                25609                       # Number of branch mispredicts detected at execute
system.cpu.iew.exec_branches                  1601701                       # Number of branches executed
system.cpu.iew.exec_nop                             0                       # number of nop insts executed
system.cpu.iew.exec_rate                     1.349401                       # Inst execution rate
system.cpu.iew.exec_refs                     13281362                       # number of memory reference insts executed
system.cpu.iew.exec_stores                      26211                       # Number of stores executed
system.cpu.iew.exec_swp                             0                       # number of swp insts executed
system.cpu.iew.iewBlockCycles                  768883                       # Number of cycles IEW is blocking
system.cpu.iew.iewDispLoadInsts               4790365                       # Number of dispatched load instructions
system.cpu.iew.iewDispNonSpecInsts                 33                       # Number of dispatched non-speculative instructions
system.cpu.iew.iewDispSquashedInsts             31597                       # Number of squashed instructions skipped by dispatch
system.cpu.iew.iewDispStoreInsts                27011                       # Number of dispatched store instructions
system.cpu.iew.iewDispatchedInsts            22579806                       # Number of instructions dispatched to IQ
system.cpu.iew.iewExecLoadInsts              13255151                       # Number of load instructions executed
system.cpu.iew.iewExecSquashedInsts             60559                       # Number of squashed instructions skipped in execute
system.cpu.iew.iewExecutedInsts              30910365                       # Number of executed instructions
system.cpu.iew.iewIQFullEvents                  48046                       # Number of times the IQ has become full, causing a stall
system.cpu.iew.iewIdleCycles                        0                       # Number of cycles IEW is idle
system.cpu.iew.iewLSQFullEvents               2746967                       # Number of times the LSQ has become full, causing a stall
system.cpu.iew.iewSquashCycles                  25412                       # Number of cycles IEW is squashing
system.cpu.iew.iewUnblockCycles               2818366                       # Number of cycles IEW is unblocking
system.cpu.iew.lsq.thread0.blockedLoads             0                       # Number of blocked loads due to partial load-store forwarding
system.cpu.iew.lsq.thread0.cacheBlocked        899469                       # Number of times an access to memory failed due to the cache being blocked
system.cpu.iew.lsq.thread0.forwLoads               50                       # Number of loads that had data forwarded from stores
system.cpu.iew.lsq.thread0.ignoredResponses            1                       # Number of memory responses ignored because the instruction is squashed
system.cpu.iew.lsq.thread0.invAddrLoads             0                       # Number of loads ignored due to an invalid address
system.cpu.iew.lsq.thread0.invAddrSwpfs             0                       # Number of software prefetches ignored due to an invalid address
system.cpu.iew.lsq.thread0.memOrderViolation            8                       # Number of memory ordering violations
system.cpu.iew.lsq.thread0.rescheduledLoads            1                       # Number of loads that were rescheduled
system.cpu.iew.lsq.thread0.squashedLoads        71747                       # Number of loads squashed
system.cpu.iew.lsq.thread0.squashedStores         1421                       # Number of stores squashed
system.cpu.iew.memOrderViolationEvents              8                       # Number of memory order violations
system.cpu.iew.predictedNotTakenIncorrect         1623                       # Number of branches that were predicted not taken incorrectly
system.cpu.iew.predictedTakenIncorrect          23986                       # Number of branches that were predicted taken incorrectly
system.cpu.iew.wb_consumers                  22333708                       # num instructions consuming a value
system.cpu.iew.wb_count                      22374995                       # cumulative count of insts written-back
system.cpu.iew.wb_fanout                     0.743077                       # average fanout of values written-back
system.cpu.iew.wb_producers                  16595670                       # num instructions producing a value
system.cpu.iew.wb_rate                       0.976787                       # insts written-back per cycle
system.cpu.iew.wb_sent                       22376239                       # cumulative count of insts sent to commit
system.cpu.int_regfile_reads                 37952914                       # number of integer regfile reads
system.cpu.int_regfile_writes                11324646                       # number of integer regfile writes
system.cpu.ipc                               0.488194                       # IPC: Instructions Per Cycle
system.cpu.ipc_total                         0.488194                       # IPC: Total IPC of All Threads
system.cpu.iq.FU_type_0::No_OpClass               289      0.00%      0.00% # Type of FU issued
system.cpu.iq.FU_type_0::IntAlu              11401502     36.81%     36.81% # Type of FU issued
system.cpu.iq.FU_type_0::IntMult                    5      0.00%     36.81% # Type of FU issued
system.cpu.iq.FU_type_0::IntDiv                    23      0.00%     36.81% # Type of FU issued
system.cpu.iq.FU_type_0::FloatAdd             3154407     10.19%     47.00% # Type of FU issued
system.cpu.iq.FU_type_0::FloatCmp                   0      0.00%     47.00% # Type of FU issued
system.cpu.iq.FU_type_0::FloatCvt                   0      0.00%     47.00% # Type of FU issued
system.cpu.iq.FU_type_0::FloatMult                  0      0.00%     47.00% # Type of FU issued
system.cpu.iq.FU_type_0::FloatMultAcc               0      0.00%     47.00% # Type of FU issued
system.cpu.iq.FU_type_0::FloatDiv                   0      0.00%     47.00% # Type of FU issued
system.cpu.iq.FU_type_0::FloatMisc                  0      0.00%     47.00% # Type of FU issued
system.cpu.iq.FU_type_0::FloatSqrt                  0      0.00%     47.00% # Type of FU issued
system.cpu.iq.FU_type_0::SimdAdd                    0      0.00%     47.00% # Type of FU issued
system.cpu.iq.FU_type_0::SimdAddAcc                 0      0.00%     47.00% # Type of FU issued
system.cpu.iq.FU_type_0::SimdAlu                   77      0.00%     47.00% # Type of FU issued
system.cpu.iq.FU_type_0::SimdCmp                    0      0.00%     47.00% # Type of FU issued
system.cpu.iq.FU_type_0::SimdCvt                   51      0.00%     47.00% # Type of FU issued
system.cpu.iq.FU_type_0::SimdMisc                  64      0.00%     47.00% # Type of FU issued
system.cpu.iq.FU_type_0::SimdMult                   0      0.00%     47.00% # Type of FU issued
system.cpu.iq.FU_type_0::SimdMultAcc                0      0.00%     47.00% # Type of FU issued
system.cpu.iq.FU_type_0::SimdShift                  0      0.00%     47.00% # Type of FU issued
system.cpu.iq.FU_type_0::SimdShiftAcc               0      0.00%     47.00% # Type of FU issued
system.cpu.iq.FU_type_0::SimdDiv                    0      0.00%     47.00% # Type of FU issued
system.cpu.iq.FU_type_0::SimdSqrt                   0      0.00%     47.00% # Type of FU issued
system.cpu.iq.FU_type_0::SimdFloatAdd         1572619      5.08%     52.08% # Type of FU issued
system.cpu.iq.FU_type_0::SimdFloatAlu               0      0.00%     52.08% # Type of FU issued
system.cpu.iq.FU_type_0::SimdFloatCmp               0      0.00%     52.08% # Type of FU issued
system.cpu.iq.FU_type_0::SimdFloatCvt               0      0.00%     52.08% # Type of FU issued
system.cpu.iq.FU_type_0::SimdFloatDiv               0      0.00%     52.08% # Type of FU issued
system.cpu.iq.FU_type_0::SimdFloatMisc              0      0.00%     52.08% # Type of FU issued
system.cpu.iq.FU_type_0::SimdFloatMult        1548043      5.00%     57.08% # Type of FU issued
system.cpu.iq.FU_type_0::SimdFloatMultAcc            0      0.00%     57.08% # Type of FU issued
system.cpu.iq.FU_type_0::SimdFloatSqrt              0      0.00%     57.08% # Type of FU issued
system.cpu.iq.FU_type_0::SimdReduceAdd              0      0.00%     57.08% # Type of FU issued
system.cpu.iq.FU_type_0::SimdReduceAlu              0      0.00%     57.08% # Type of FU issued
system.cpu.iq.FU_type_0::SimdReduceCmp              0      0.00%     57.08% # Type of FU issued
system.cpu.iq.FU_type_0::SimdFloatReduceAdd            0      0.00%     57.08% # Type of FU issued
system.cpu.iq.FU_type_0::SimdFloatReduceCmp            0      0.00%     57.08% # Type of FU issued
system.cpu.iq.FU_type_0::SimdAes                    0      0.00%     57.08% # Type of FU issued
system.cpu.iq.FU_type_0::SimdAesMix                 0      0.00%     57.08% # Type of FU issued
system.cpu.iq.FU_type_0::SimdSha1Hash               0      0.00%     57.08% # Type of FU issued
system.cpu.iq.FU_type_0::SimdSha1Hash2              0      0.00%     57.08% # Type of FU issued
system.cpu.iq.FU_type_0::SimdSha256Hash             0      0.00%     57.08% # Type of FU issued
system.cpu.iq.FU_type_0::SimdSha256Hash2            0      0.00%     57.08% # Type of FU issued
system.cpu.iq.FU_type_0::SimdShaSigma2              0      0.00%     57.08% # Type of FU issued
system.cpu.iq.FU_type_0::SimdShaSigma3              0      0.00%     57.08% # Type of FU issued
system.cpu.iq.FU_type_0::SimdPredAlu                0      0.00%     57.08% # Type of FU issued
system.cpu.iq.FU_type_0::MemRead              4841063     15.63%     72.71% # Type of FU issued
system.cpu.iq.FU_type_0::MemWrite                1612      0.01%     72.71% # Type of FU issued
system.cpu.iq.FU_type_0::FloatMemRead         8426439     27.21%     99.92% # Type of FU issued
system.cpu.iq.FU_type_0::FloatMemWrite          24730      0.08%    100.00% # Type of FU issued
system.cpu.iq.FU_type_0::IprAccess                  0      0.00%    100.00% # Type of FU issued
system.cpu.iq.FU_type_0::InstPrefetch               0      0.00%    100.00% # Type of FU issued
system.cpu.iq.FU_type_0::total               30970924                       # Type of FU issued
system.cpu.iq.fp_alu_accesses                16460344                       # Number of floating point alu accesses
system.cpu.iq.fp_inst_queue_reads            31250551                       # Number of floating instruction queue reads
system.cpu.iq.fp_inst_queue_wakeup_accesses      9447617                       # Number of floating instruction queue wakeup accesses
system.cpu.iq.fp_inst_queue_writes            9657912                       # Number of floating instruction queue writes
system.cpu.iq.fu_busy_cnt                     3167883                       # FU busy when requested
system.cpu.iq.fu_busy_rate                   0.102286                       # FU busy rate (busy events/executed inst)
system.cpu.iq.fu_full::No_OpClass                   0      0.00%      0.00% # attempts to use FU when none available
system.cpu.iq.fu_full::IntAlu                   49569      1.56%      1.56% # attempts to use FU when none available
system.cpu.iq.fu_full::IntMult                      0      0.00%      1.56% # attempts to use FU when none available
system.cpu.iq.fu_full::IntDiv                       0      0.00%      1.56% # attempts to use FU when none available
system.cpu.iq.fu_full::FloatAdd                     0      0.00%      1.56% # attempts to use FU when none available
system.cpu.iq.fu_full::FloatCmp                     0      0.00%      1.56% # attempts to use FU when none available
system.cpu.iq.fu_full::FloatCvt                     0      0.00%      1.56% # attempts to use FU when none available
system.cpu.iq.fu_full::FloatMult                    0      0.00%      1.56% # attempts to use FU when none available
system.cpu.iq.fu_full::FloatMultAcc                 0      0.00%      1.56% # attempts to use FU when none available
system.cpu.iq.fu_full::FloatDiv                     0      0.00%      1.56% # attempts to use FU when none available
system.cpu.iq.fu_full::FloatMisc                    0      0.00%      1.56% # attempts to use FU when none available
system.cpu.iq.fu_full::FloatSqrt                    0      0.00%      1.56% # attempts to use FU when none available
system.cpu.iq.fu_full::SimdAdd                      0      0.00%      1.56% # attempts to use FU when none available
system.cpu.iq.fu_full::SimdAddAcc                   0      0.00%      1.56% # attempts to use FU when none available
system.cpu.iq.fu_full::SimdAlu                      7      0.00%      1.56% # attempts to use FU when none available
system.cpu.iq.fu_full::SimdCmp                      0      0.00%      1.56% # attempts to use FU when none available
system.cpu.iq.fu_full::SimdCvt                      0      0.00%      1.56% # attempts to use FU when none available
system.cpu.iq.fu_full::SimdMisc                     0      0.00%      1.56% # attempts to use FU when none available
system.cpu.iq.fu_full::SimdMult                     0      0.00%      1.56% # attempts to use FU when none available
system.cpu.iq.fu_full::SimdMultAcc                  0      0.00%      1.56% # attempts to use FU when none available
system.cpu.iq.fu_full::SimdShift                    0      0.00%      1.56% # attempts to use FU when none available
system.cpu.iq.fu_full::SimdShiftAcc                 0      0.00%      1.56% # attempts to use FU when none available
system.cpu.iq.fu_full::SimdDiv                      0      0.00%      1.56% # attempts to use FU when none available
system.cpu.iq.fu_full::SimdSqrt                     0      0.00%      1.56% # attempts to use FU when none available
system.cpu.iq.fu_full::SimdFloatAdd                 0      0.00%      1.56% # attempts to use FU when none available
system.cpu.iq.fu_full::SimdFloatAlu                 0      0.00%      1.56% # attempts to use FU when none available
system.cpu.iq.fu_full::SimdFloatCmp                 0      0.00%      1.56% # attempts to use FU when none available
system.cpu.iq.fu_full::SimdFloatCvt                 0      0.00%      1.56% # attempts to use FU when none available
system.cpu.iq.fu_full::SimdFloatDiv                 0      0.00%      1.56% # attempts to use FU when none available
system.cpu.iq.fu_full::SimdFloatMisc                0      0.00%      1.56% # attempts to use FU when none available
system.cpu.iq.fu_full::SimdFloatMult             6924      0.22%      1.78% # attempts to use FU when none available
system.cpu.iq.fu_full::SimdFloatMultAcc             0      0.00%      1.78% # attempts to use FU when none available
system.cpu.iq.fu_full::SimdFloatSqrt                0      0.00%      1.78% # attempts to use FU when none available
system.cpu.iq.fu_full::SimdReduceAdd                0      0.00%      1.78% # attempts to use FU when none available
system.cpu.iq.fu_full::SimdReduceAlu                0      0.00%      1.78% # attempts to use FU when none available
system.cpu.iq.fu_full::SimdReduceCmp                0      0.00%      1.78% # attempts to use FU when none available
system.cpu.iq.fu_full::SimdFloatReduceAdd            0      0.00%      1.78% # attempts to use FU when none available
system.cpu.iq.fu_full::SimdFloatReduceCmp            0      0.00%      1.78% # attempts to use FU when none available
system.cpu.iq.fu_full::SimdAes                      0      0.00%      1.78% # attempts to use FU when none available
system.cpu.iq.fu_full::SimdAesMix                   0      0.00%      1.78% # attempts to use FU when none available
system.cpu.iq.fu_full::SimdSha1Hash                 0      0.00%      1.78% # attempts to use FU when none available
system.cpu.iq.fu_full::SimdSha1Hash2                0      0.00%      1.78% # attempts to use FU when none available
system.cpu.iq.fu_full::SimdSha256Hash               0      0.00%      1.78% # attempts to use FU when none available
system.cpu.iq.fu_full::SimdSha256Hash2              0      0.00%      1.78% # attempts to use FU when none available
system.cpu.iq.fu_full::SimdShaSigma2                0      0.00%      1.78% # attempts to use FU when none available
system.cpu.iq.fu_full::SimdShaSigma3                0      0.00%      1.78% # attempts to use FU when none available
system.cpu.iq.fu_full::SimdPredAlu                  0      0.00%      1.78% # attempts to use FU when none available
system.cpu.iq.fu_full::MemRead                1434259     45.27%     47.06% # attempts to use FU when none available
system.cpu.iq.fu_full::MemWrite                     0      0.00%     47.06% # attempts to use FU when none available
system.cpu.iq.fu_full::FloatMemRead           1677120     52.94%    100.00% # attempts to use FU when none available
system.cpu.iq.fu_full::FloatMemWrite                4      0.00%    100.00% # attempts to use FU when none available
system.cpu.iq.fu_full::IprAccess                    0      0.00%    100.00% # attempts to use FU when none available
system.cpu.iq.fu_full::InstPrefetch                 0      0.00%    100.00% # attempts to use FU when none available
system.cpu.iq.int_alu_accesses               17678174                       # Number of integer alu accesses
system.cpu.iq.int_inst_queue_reads           56792954                       # Number of integer instruction queue reads
system.cpu.iq.int_inst_queue_wakeup_accesses     12927378                       # Number of integer instruction queue wakeup accesses
system.cpu.iq.int_inst_queue_writes          13231589                       # Number of integer instruction queue writes
system.cpu.iq.iqInstsAdded                   22579736                       # Number of instructions added to the IQ (excludes non-spec)
system.cpu.iq.iqInstsIssued                  30970924                       # Number of instructions issued
system.cpu.iq.iqNonSpecInstsAdded                  70                       # Number of non-speculative instructions added to the IQ
system.cpu.iq.iqSquashedInstsExamined          309687                       # Number of squashed instructions iterated over during squash; mainly for profiling
system.cpu.iq.iqSquashedInstsIssued             32224                       # Number of squashed instructions issued
system.cpu.iq.iqSquashedNonSpecRemoved             62                       # Number of squashed non-spec instructions that were removed
system.cpu.iq.iqSquashedOperandsExamined       429191                       # Number of squashed operands that are examined and possibly removed from graph
system.cpu.iq.issued_per_cycle::samples      22901550                       # Number of insts issued each cycle
system.cpu.iq.issued_per_cycle::mean         1.352351                       # Number of insts issued each cycle
system.cpu.iq.issued_per_cycle::stdev        1.992998                       # Number of insts issued each cycle
system.cpu.iq.issued_per_cycle::underflows            0      0.00%      0.00% # Number of insts issued each cycle
system.cpu.iq.issued_per_cycle::0            13047285     56.97%     56.97% # Number of insts issued each cycle
system.cpu.iq.issued_per_cycle::1             2819129     12.31%     69.28% # Number of insts issued each cycle
system.cpu.iq.issued_per_cycle::2             1569233      6.85%     76.13% # Number of insts issued each cycle
system.cpu.iq.issued_per_cycle::3             1243585      5.43%     81.56% # Number of insts issued each cycle
system.cpu.iq.issued_per_cycle::4             1674156      7.31%     88.87% # Number of insts issued each cycle
system.cpu.iq.issued_per_cycle::5             1396382      6.10%     94.97% # Number of insts issued each cycle
system.cpu.iq.issued_per_cycle::6              652064      2.85%     97.82% # Number of insts issued each cycle
system.cpu.iq.issued_per_cycle::7              306072      1.34%     99.15% # Number of insts issued each cycle
system.cpu.iq.issued_per_cycle::8              193644      0.85%    100.00% # Number of insts issued each cycle
system.cpu.iq.issued_per_cycle::overflows            0      0.00%    100.00% # Number of insts issued each cycle
system.cpu.iq.issued_per_cycle::min_value            0                       # Number of insts issued each cycle
system.cpu.iq.issued_per_cycle::max_value            8                       # Number of insts issued each cycle
system.cpu.iq.issued_per_cycle::total        22901550                       # Number of insts issued each cycle
system.cpu.iq.rate                           1.352044                       # Inst issue rate
system.cpu.iq.vec_alu_accesses                      0                       # Number of vector alu accesses
system.cpu.iq.vec_inst_queue_reads                  0                       # Number of vector instruction queue reads
system.cpu.iq.vec_inst_queue_wakeup_accesses            0                       # Number of vector instruction queue wakeup accesses
system.cpu.iq.vec_inst_queue_writes                 0                       # Number of vector instruction queue writes
system.cpu.itb.rdAccesses                           0                       # TLB accesses on read requests
system.cpu.itb.rdMisses                             0                       # TLB misses on read requests
system.cpu.itb.wrAccesses                     3317885                       # TLB accesses on write requests
system.cpu.itb.wrMisses                            33                       # TLB misses on write requests
system.cpu.memDep0.conflictingLoads              1073                       # Number of conflicting loads.
system.cpu.memDep0.conflictingStores             1063                       # Number of conflicting stores.
system.cpu.memDep0.insertedLoads              4790365                       # Number of loads inserted to the mem dependence unit.
system.cpu.memDep0.insertedStores               27011                       # Number of stores inserted to the mem dependence unit.
system.cpu.misc_regfile_reads                16491625                       # number of misc regfile reads
system.cpu.misc_regfile_writes                      1                       # number of misc regfile writes
system.cpu.numCycles                         22906738                       # number of cpu cycles simulated
system.cpu.numWorkItemsCompleted                    0                       # number of work items this cpu completed
system.cpu.numWorkItemsStarted                      0                       # number of work items this cpu started
system.cpu.rename.BlockCycles                 4080119                       # Number of cycles rename is blocking
system.cpu.rename.CommittedMaps              27132083                       # Number of HB maps that are committed
system.cpu.rename.IQFullEvents                2327155                       # Number of times rename has blocked due to IQ full
system.cpu.rename.IdleCycles                  1796842                       # Number of cycles rename is idle
system.cpu.rename.LQFullEvents               13564484                       # Number of times rename has blocked due to LQ full
system.cpu.rename.ROBFullEvents                121856                       # Number of times rename has blocked due to ROB full
system.cpu.rename.RenameLookups              47079408                       # Number of register rename lookups that rename has made
system.cpu.rename.RenamedInsts               22707373                       # Number of instructions processed by rename
system.cpu.rename.RenamedOperands            27687679                       # Number of destination operands rename has renamed
system.cpu.rename.RunCycles                   2404778                       # Number of cycles rename is running
system.cpu.rename.SQFullEvents                   2402                       # Number of times rename has blocked due to SQ full
system.cpu.rename.SquashCycles                  25412                       # Number of cycles rename is squashing
system.cpu.rename.UnblockCycles              14593818                       # Number of cycles rename is unblocking
system.cpu.rename.UndoneMaps                   555596                       # Number of HB maps that are undone due to squashing
system.cpu.rename.fp_rename_lookups           9615640                       # Number of floating rename lookups
system.cpu.rename.int_rename_lookups         21254982                       # Number of integer rename lookups
system.cpu.rename.serializeStallCycles            581                       # count of cycles rename stalled for serializing inst
system.cpu.rename.serializingInsts                 22                       # count of serializing insts renamed
system.cpu.rename.skidInsts                   8909516                       # count of insts added to the skid buffer
system.cpu.rename.tempSerializingInsts             16                       # count of temporary serializing insts renamed
system.cpu.rob.rob_reads                     43297689                       # The number of ROB reads
system.cpu.rob.rob_writes                    45216351                       # The number of ROB writes
system.cpu.timesIdled                             164                       # Number of times that the entire CPU went into an idle state and unscheduled itself
system.cpu.workload.numSyscalls                     7                       # Number of system calls
system.membus.snoop_filter.hit_multi_requests            1                       # Number of requests hitting in the snoop filter with multiple (>1) holders of the requested data.
system.membus.snoop_filter.hit_multi_snoops            0                       # Number of snoops hitting in the snoop filter with multiple (>1) holders of the requested data.
system.membus.snoop_filter.hit_single_requests      1134228                       # Number of requests hitting in the snoop filter with a single holder of the requested data.
system.membus.snoop_filter.hit_single_snoops            0                       # Number of snoops hitting in the snoop filter with a single holder of the requested data.
system.membus.snoop_filter.tot_requests       2270821                       # Total number of requests made to the snoop filter.
system.membus.snoop_filter.tot_snoops               0                       # Total number of snoops made to the snoop filter.
system.membus.pwrStateResidencyTicks::UNDEFINED  22906737000                       # Cumulative time (in ticks) in various power states
system.membus.trans_dist::ReadResp            1136501                       # Transaction distribution
system.membus.trans_dist::WritebackDirty         1702                       # Transaction distribution
system.membus.trans_dist::CleanEvict          1132526                       # Transaction distribution
system.membus.trans_dist::ReadExReq                91                       # Transaction distribution
system.membus.trans_dist::ReadExResp               91                       # Transaction distribution
system.membus.trans_dist::ReadSharedReq       1136502                       # Transaction distribution
system.membus.pkt_count_system.cpu.icache.mem_side::system.mem_ctrl.port          633                       # Packet count per connected master and slave (bytes)
system.membus.pkt_count_system.cpu.icache.mem_side::total          633                       # Packet count per connected master and slave (bytes)
system.membus.pkt_count_system.cpu.dcache.mem_side::system.mem_ctrl.port      3406780                       # Packet count per connected master and slave (bytes)
system.membus.pkt_count_system.cpu.dcache.mem_side::total      3406780                       # Packet count per connected master and slave (bytes)
system.membus.pkt_count::total                3407413                       # Packet count per connected master and slave (bytes)
system.membus.pkt_size_system.cpu.icache.mem_side::system.mem_ctrl.port        20224                       # Cumulative packet size per connected master and slave (bytes)
system.membus.pkt_size_system.cpu.icache.mem_side::total        20224                       # Cumulative packet size per connected master and slave (bytes)
system.membus.pkt_size_system.cpu.dcache.mem_side::system.mem_ctrl.port     72830592                       # Cumulative packet size per connected master and slave (bytes)
system.membus.pkt_size_system.cpu.dcache.mem_side::total     72830592                       # Cumulative packet size per connected master and slave (bytes)
system.membus.pkt_size::total                72850816                       # Cumulative packet size per connected master and slave (bytes)
system.membus.snoops                                0                       # Total snoops (count)
system.membus.snoopTraffic                          0                       # Total snoop traffic (bytes)
system.membus.snoop_fanout::samples           1136593                       # Request fanout histogram
system.membus.snoop_fanout::mean             0.000001                       # Request fanout histogram
system.membus.snoop_fanout::stdev            0.000938                       # Request fanout histogram
system.membus.snoop_fanout::underflows              0      0.00%      0.00% # Request fanout histogram
system.membus.snoop_fanout::0                 1136592    100.00%    100.00% # Request fanout histogram
system.membus.snoop_fanout::1                       1      0.00%    100.00% # Request fanout histogram
system.membus.snoop_fanout::2                       0      0.00%    100.00% # Request fanout histogram
system.membus.snoop_fanout::overflows               0      0.00%    100.00% # Request fanout histogram
system.membus.snoop_fanout::min_value               0                       # Request fanout histogram
system.membus.snoop_fanout::max_value               1                       # Request fanout histogram
system.membus.snoop_fanout::total             1136593                       # Request fanout histogram
system.membus.reqLayer2.occupancy          2277629000                       # Layer occupancy (ticks)
system.membus.reqLayer2.utilization               9.9                       # Layer utilization (%)
system.membus.respLayer1.occupancy         6078888250                       # Layer occupancy (ticks)
system.membus.respLayer1.utilization             26.5                       # Layer utilization (%)
system.membus.respLayer0.occupancy            1676750                       # Layer occupancy (ticks)
system.membus.respLayer0.utilization              0.0                       # Layer utilization (%)
system.mem_ctrl.pwrStateResidencyTicks::UNDEFINED  22906737000                       # Cumulative time (in ticks) in various power states
system.mem_ctrl.bytes_read::.cpu.inst           20224                       # Number of bytes read from this memory
system.mem_ctrl.bytes_read::.cpu.data        72721664                       # Number of bytes read from this memory
system.mem_ctrl.bytes_read::total            72741888                       # Number of bytes read from this memory
system.mem_ctrl.bytes_inst_read::.cpu.inst        20224                       # Number of instructions bytes read from this memory
system.mem_ctrl.bytes_inst_read::total          20224                       # Number of instructions bytes read from this memory
system.mem_ctrl.bytes_written::.writebacks       108928                       # Number of bytes written to this memory
system.mem_ctrl.bytes_written::total           108928                       # Number of bytes written to this memory
system.mem_ctrl.num_reads::.cpu.inst              316                       # Number of read requests responded to by this memory
system.mem_ctrl.num_reads::.cpu.data          1136276                       # Number of read requests responded to by this memory
system.mem_ctrl.num_reads::total              1136592                       # Number of read requests responded to by this memory
system.mem_ctrl.num_writes::.writebacks          1702                       # Number of write requests responded to by this memory
system.mem_ctrl.num_writes::total                1702                       # Number of write requests responded to by this memory
system.mem_ctrl.bw_read::.cpu.inst             882884                       # Total read bandwidth from this memory (bytes/s)
system.mem_ctrl.bw_read::.cpu.data         3174684548                       # Total read bandwidth from this memory (bytes/s)
system.mem_ctrl.bw_read::total             3175567432                       # Total read bandwidth from this memory (bytes/s)
system.mem_ctrl.bw_inst_read::.cpu.inst        882884                       # Instruction read bandwidth from this memory (bytes/s)
system.mem_ctrl.bw_inst_read::total            882884                       # Instruction read bandwidth from this memory (bytes/s)
system.mem_ctrl.bw_write::.writebacks         4755282                       # Write bandwidth from this memory (bytes/s)
system.mem_ctrl.bw_write::total               4755282                       # Write bandwidth from this memory (bytes/s)
system.mem_ctrl.bw_total::.writebacks         4755282                       # Total bandwidth to/from this memory (bytes/s)
system.mem_ctrl.bw_total::.cpu.inst            882884                       # Total bandwidth to/from this memory (bytes/s)
system.mem_ctrl.bw_total::.cpu.data        3174684548                       # Total bandwidth to/from this memory (bytes/s)
system.mem_ctrl.bw_total::total            3180322715                       # Total bandwidth to/from this memory (bytes/s)
system.mem_ctrl.avgPriority_.writebacks::samples      1647.00                       # Average QoS priority value for accepted requests
system.mem_ctrl.avgPriority_.cpu.inst::samples       317.00                       # Average QoS priority value for accepted requests
system.mem_ctrl.avgPriority_.cpu.data::samples   1136215.00                       # Average QoS priority value for accepted requests
system.mem_ctrl.priorityMinLatency       0.000000018750                       # per QoS priority minimum request to response latency (s)
system.mem_ctrl.priorityMaxLatency       0.001415882250                       # per QoS priority maximum request to response latency (s)
system.mem_ctrl.numReadWriteTurnArounds           101                       # Number of turnarounds from READ to WRITE
system.mem_ctrl.numWriteReadTurnArounds           101                       # Number of turnarounds from WRITE to READ
system.mem_ctrl.numStayReadState              2021150                       # Number of times bus staying in READ state
system.mem_ctrl.numStayWriteState                1517                       # Number of times bus staying in WRITE state
system.mem_ctrl.readReqs                      1136593                       # Number of read requests accepted
system.mem_ctrl.writeReqs                        1702                       # Number of write requests accepted
system.mem_ctrl.readBursts                    1136593                       # Number of DRAM read bursts, including those serviced by the write queue
system.mem_ctrl.writeBursts                      1702                       # Number of DRAM write bursts, including those merged in the write queue
system.mem_ctrl.servicedByWrQ                      61                       # Number of DRAM read bursts serviced by the write queue
system.mem_ctrl.mergedWrBursts                     55                       # Number of DRAM write bursts merged with an existing one
system.mem_ctrl.neitherReadNorWriteReqs             0                       # Number of requests that are neither read nor write
system.mem_ctrl.perBankRdBursts::0              71685                       # Per bank write bursts
system.mem_ctrl.perBankRdBursts::1              71680                       # Per bank write bursts
system.mem_ctrl.perBankRdBursts::2              71260                       # Per bank write bursts
system.mem_ctrl.perBankRdBursts::3              71383                       # Per bank write bursts
system.mem_ctrl.perBankRdBursts::4              70834                       # Per bank write bursts
system.mem_ctrl.perBankRdBursts::5              70293                       # Per bank write bursts
system.mem_ctrl.perBankRdBursts::6              70954                       # Per bank write bursts
system.mem_ctrl.perBankRdBursts::7              71056                       # Per bank write bursts
system.mem_ctrl.perBankRdBursts::8              71206                       # Per bank write bursts
system.mem_ctrl.perBankRdBursts::9              71763                       # Per bank write bursts
system.mem_ctrl.perBankRdBursts::10             71067                       # Per bank write bursts
system.mem_ctrl.perBankRdBursts::11             70585                       # Per bank write bursts
system.mem_ctrl.perBankRdBursts::12             70222                       # Per bank write bursts
system.mem_ctrl.perBankRdBursts::13             69774                       # Per bank write bursts
system.mem_ctrl.perBankRdBursts::14             71424                       # Per bank write bursts
system.mem_ctrl.perBankRdBursts::15             71346                       # Per bank write bursts
system.mem_ctrl.perBankWrBursts::0                384                       # Per bank write bursts
system.mem_ctrl.perBankWrBursts::1                384                       # Per bank write bursts
system.mem_ctrl.perBankWrBursts::2                240                       # Per bank write bursts
system.mem_ctrl.perBankWrBursts::3                  0                       # Per bank write bursts
system.mem_ctrl.perBankWrBursts::4                  0                       # Per bank write bursts
system.mem_ctrl.perBankWrBursts::5                  0                       # Per bank write bursts
system.mem_ctrl.perBankWrBursts::6                  0                       # Per bank write bursts
system.mem_ctrl.perBankWrBursts::7                  0                       # Per bank write bursts
system.mem_ctrl.perBankWrBursts::8                  0                       # Per bank write bursts
system.mem_ctrl.perBankWrBursts::9                  0                       # Per bank write bursts
system.mem_ctrl.perBankWrBursts::10                42                       # Per bank write bursts
system.mem_ctrl.perBankWrBursts::11                16                       # Per bank write bursts
system.mem_ctrl.perBankWrBursts::12               135                       # Per bank write bursts
system.mem_ctrl.perBankWrBursts::13                 4                       # Per bank write bursts
system.mem_ctrl.perBankWrBursts::14                27                       # Per bank write bursts
system.mem_ctrl.perBankWrBursts::15               384                       # Per bank write bursts
system.mem_ctrl.avgRdQLen                        3.20                       # Average read queue length when enqueuing
system.mem_ctrl.avgWrQLen                       25.23                       # Average write queue length when enqueuing
system.mem_ctrl.totQLat                   25484068250                       # Total ticks spent queuing
system.mem_ctrl.totBusLat                  5682660000                       # Total ticks spent in databus transfers
system.mem_ctrl.totMemAccLat              46794043250                       # Total ticks spent from burst creation until serviced by the DRAM
system.mem_ctrl.avgQLat                      22422.66                       # Average queueing delay per DRAM burst
system.mem_ctrl.avgBusLat                     5000.00                       # Average bus latency per DRAM burst
system.mem_ctrl.avgMemAccLat                 41172.66                       # Average memory access latency per DRAM burst
system.mem_ctrl.numRdRetry                          0                       # Number of times read queue was full causing retry
system.mem_ctrl.numWrRetry                          0                       # Number of times write queue was full causing retry
system.mem_ctrl.readRowHits                    634648                       # Number of row buffer hits during reads
system.mem_ctrl.writeRowHits                     1490                       # Number of row buffer hits during writes
system.mem_ctrl.readRowHitRate                  55.84                       # Row buffer hit rate for reads
system.mem_ctrl.writeRowHitRate                 90.47                       # Row buffer hit rate for writes
system.mem_ctrl.readPktSize::0                      0                       # Read request sizes (log2)
system.mem_ctrl.readPktSize::1                      0                       # Read request sizes (log2)
system.mem_ctrl.readPktSize::2                      0                       # Read request sizes (log2)
system.mem_ctrl.readPktSize::3                      0                       # Read request sizes (log2)
system.mem_ctrl.readPktSize::4                      0                       # Read request sizes (log2)
system.mem_ctrl.readPktSize::5                      0                       # Read request sizes (log2)
system.mem_ctrl.readPktSize::6                1136593                       # Read request sizes (log2)
system.mem_ctrl.writePktSize::0                     0                       # Write request sizes (log2)
system.mem_ctrl.writePktSize::1                     0                       # Write request sizes (log2)
system.mem_ctrl.writePktSize::2                     0                       # Write request sizes (log2)
system.mem_ctrl.writePktSize::3                     0                       # Write request sizes (log2)
system.mem_ctrl.writePktSize::4                     0                       # Write request sizes (log2)
system.mem_ctrl.writePktSize::5                     0                       # Write request sizes (log2)
system.mem_ctrl.writePktSize::6                  1702                       # Write request sizes (log2)
system.mem_ctrl.rdQLenPdf::0                   216333                       # What read queue length does an incoming req see
system.mem_ctrl.rdQLenPdf::1                   337834                       # What read queue length does an incoming req see
system.mem_ctrl.rdQLenPdf::2                   382543                       # What read queue length does an incoming req see
system.mem_ctrl.rdQLenPdf::3                   199821                       # What read queue length does an incoming req see
system.mem_ctrl.rdQLenPdf::4                        1                       # What read queue length does an incoming req see
system.mem_ctrl.rdQLenPdf::5                        0                       # What read queue length does an incoming req see
system.mem_ctrl.rdQLenPdf::6                        0                       # What read queue length does an incoming req see
system.mem_ctrl.rdQLenPdf::7                        0                       # What read queue length does an incoming req see
system.mem_ctrl.rdQLenPdf::8                        0                       # What read queue length does an incoming req see
system.mem_ctrl.rdQLenPdf::9                        0                       # What read queue length does an incoming req see
system.mem_ctrl.rdQLenPdf::10                       0                       # What read queue length does an incoming req see
system.mem_ctrl.rdQLenPdf::11                       0                       # What read queue length does an incoming req see
system.mem_ctrl.rdQLenPdf::12                       0                       # What read queue length does an incoming req see
system.mem_ctrl.rdQLenPdf::13                       0                       # What read queue length does an incoming req see
system.mem_ctrl.rdQLenPdf::14                       0                       # What read queue length does an incoming req see
system.mem_ctrl.rdQLenPdf::15                       0                       # What read queue length does an incoming req see
system.mem_ctrl.rdQLenPdf::16                       0                       # What read queue length does an incoming req see
system.mem_ctrl.rdQLenPdf::17                       0                       # What read queue length does an incoming req see
system.mem_ctrl.rdQLenPdf::18                       0                       # What read queue length does an incoming req see
system.mem_ctrl.rdQLenPdf::19                       0                       # What read queue length does an incoming req see
system.mem_ctrl.rdQLenPdf::20                       0                       # What read queue length does an incoming req see
system.mem_ctrl.rdQLenPdf::21                       0                       # What read queue length does an incoming req see
system.mem_ctrl.rdQLenPdf::22                       0                       # What read queue length does an incoming req see
system.mem_ctrl.rdQLenPdf::23                       0                       # What read queue length does an incoming req see
system.mem_ctrl.rdQLenPdf::24                       0                       # What read queue length does an incoming req see
system.mem_ctrl.rdQLenPdf::25                       0                       # What read queue length does an incoming req see
system.mem_ctrl.rdQLenPdf::26                       0                       # What read queue length does an incoming req see
system.mem_ctrl.rdQLenPdf::27                       0                       # What read queue length does an incoming req see
system.mem_ctrl.rdQLenPdf::28                       0                       # What read queue length does an incoming req see
system.mem_ctrl.rdQLenPdf::29                       0                       # What read queue length does an incoming req see
system.mem_ctrl.rdQLenPdf::30                       0                       # What read queue length does an incoming req see
system.mem_ctrl.rdQLenPdf::31                       0                       # What read queue length does an incoming req see
system.mem_ctrl.wrQLenPdf::0                        1                       # What write queue length does an incoming req see
system.mem_ctrl.wrQLenPdf::1                        1                       # What write queue length does an incoming req see
system.mem_ctrl.wrQLenPdf::2                        1                       # What write queue length does an incoming req see
system.mem_ctrl.wrQLenPdf::3                        1                       # What write queue length does an incoming req see
system.mem_ctrl.wrQLenPdf::4                        1                       # What write queue length does an incoming req see
system.mem_ctrl.wrQLenPdf::5                        1                       # What write queue length does an incoming req see
system.mem_ctrl.wrQLenPdf::6                        1                       # What write queue length does an incoming req see
system.mem_ctrl.wrQLenPdf::7                        1                       # What write queue length does an incoming req see
system.mem_ctrl.wrQLenPdf::8                        1                       # What write queue length does an incoming req see
system.mem_ctrl.wrQLenPdf::9                        1                       # What write queue length does an incoming req see
system.mem_ctrl.wrQLenPdf::10                       1                       # What write queue length does an incoming req see
system.mem_ctrl.wrQLenPdf::11                       1                       # What write queue length does an incoming req see
system.mem_ctrl.wrQLenPdf::12                       1                       # What write queue length does an incoming req see
system.mem_ctrl.wrQLenPdf::13                       1                       # What write queue length does an incoming req see
system.mem_ctrl.wrQLenPdf::14                       1                       # What write queue length does an incoming req see
system.mem_ctrl.wrQLenPdf::15                       1                       # What write queue length does an incoming req see
system.mem_ctrl.wrQLenPdf::16                       1                       # What write queue length does an incoming req see
system.mem_ctrl.wrQLenPdf::17                     102                       # What write queue length does an incoming req see
system.mem_ctrl.wrQLenPdf::18                     102                       # What write queue length does an incoming req see
system.mem_ctrl.wrQLenPdf::19                     102                       # What write queue length does an incoming req see
system.mem_ctrl.wrQLenPdf::20                     102                       # What write queue length does an incoming req see
system.mem_ctrl.wrQLenPdf::21                     102                       # What write queue length does an incoming req see
system.mem_ctrl.wrQLenPdf::22                     102                       # What write queue length does an incoming req see
system.mem_ctrl.wrQLenPdf::23                     102                       # What write queue length does an incoming req see
system.mem_ctrl.wrQLenPdf::24                     102                       # What write queue length does an incoming req see
system.mem_ctrl.wrQLenPdf::25                     102                       # What write queue length does an incoming req see
system.mem_ctrl.wrQLenPdf::26                     102                       # What write queue length does an incoming req see
system.mem_ctrl.wrQLenPdf::27                     102                       # What write queue length does an incoming req see
system.mem_ctrl.wrQLenPdf::28                     102                       # What write queue length does an incoming req see
system.mem_ctrl.wrQLenPdf::29                     102                       # What write queue length does an incoming req see
system.mem_ctrl.wrQLenPdf::30                     102                       # What write queue length does an incoming req see
system.mem_ctrl.wrQLenPdf::31                     101                       # What write queue length does an incoming req see
system.mem_ctrl.wrQLenPdf::32                     101                       # What write queue length does an incoming req see
system.mem_ctrl.wrQLenPdf::33                       0                       # What write queue length does an incoming req see
system.mem_ctrl.wrQLenPdf::34                       0                       # What write queue length does an incoming req see
system.mem_ctrl.wrQLenPdf::35                       0                       # What write queue length does an incoming req see
system.mem_ctrl.wrQLenPdf::36                       0                       # What write queue length does an incoming req see
system.mem_ctrl.wrQLenPdf::37                       0                       # What write queue length does an incoming req see
system.mem_ctrl.wrQLenPdf::38                       0                       # What write queue length does an incoming req see
system.mem_ctrl.wrQLenPdf::39                       0                       # What write queue length does an incoming req see
system.mem_ctrl.wrQLenPdf::40                       0                       # What write queue length does an incoming req see
system.mem_ctrl.wrQLenPdf::41                       0                       # What write queue length does an incoming req see
system.mem_ctrl.wrQLenPdf::42                       0                       # What write queue length does an incoming req see
system.mem_ctrl.wrQLenPdf::43                       0                       # What write queue length does an incoming req see
system.mem_ctrl.wrQLenPdf::44                       0                       # What write queue length does an incoming req see
system.mem_ctrl.wrQLenPdf::45                       0                       # What write queue length does an incoming req see
system.mem_ctrl.wrQLenPdf::46                       0                       # What write queue length does an incoming req see
system.mem_ctrl.wrQLenPdf::47                       0                       # What write queue length does an incoming req see
system.mem_ctrl.wrQLenPdf::48                       0                       # What write queue length does an incoming req see
system.mem_ctrl.wrQLenPdf::49                       0                       # What write queue length does an incoming req see
system.mem_ctrl.wrQLenPdf::50                       0                       # What write queue length does an incoming req see
system.mem_ctrl.wrQLenPdf::51                       0                       # What write queue length does an incoming req see
system.mem_ctrl.wrQLenPdf::52                       0                       # What write queue length does an incoming req see
system.mem_ctrl.wrQLenPdf::53                       0                       # What write queue length does an incoming req see
system.mem_ctrl.wrQLenPdf::54                       0                       # What write queue length does an incoming req see
system.mem_ctrl.wrQLenPdf::55                       0                       # What write queue length does an incoming req see
system.mem_ctrl.wrQLenPdf::56                       0                       # What write queue length does an incoming req see
system.mem_ctrl.wrQLenPdf::57                       0                       # What write queue length does an incoming req see
system.mem_ctrl.wrQLenPdf::58                       0                       # What write queue length does an incoming req see
system.mem_ctrl.wrQLenPdf::59                       0                       # What write queue length does an incoming req see
system.mem_ctrl.wrQLenPdf::60                       0                       # What write queue length does an incoming req see
system.mem_ctrl.wrQLenPdf::61                       0                       # What write queue length does an incoming req see
system.mem_ctrl.wrQLenPdf::62                       0                       # What write queue length does an incoming req see
system.mem_ctrl.wrQLenPdf::63                       0                       # What write queue length does an incoming req see
system.mem_ctrl.bytesPerActivate::samples       501994                       # Bytes accessed per row activation
system.mem_ctrl.bytesPerActivate::mean     145.095599                       # Bytes accessed per row activation
system.mem_ctrl.bytesPerActivate::gmean    121.104894                       # Bytes accessed per row activation
system.mem_ctrl.bytesPerActivate::stdev     95.554242                       # Bytes accessed per row activation
system.mem_ctrl.bytesPerActivate::0-127        193811     38.61%     38.61% # Bytes accessed per row activation
system.mem_ctrl.bytesPerActivate::128-255       225701     44.96%     83.57% # Bytes accessed per row activation
system.mem_ctrl.bytesPerActivate::256-383        62989     12.55%     96.12% # Bytes accessed per row activation
system.mem_ctrl.bytesPerActivate::384-511        15024      2.99%     99.11% # Bytes accessed per row activation
system.mem_ctrl.bytesPerActivate::512-639         3369      0.67%     99.78% # Bytes accessed per row activation
system.mem_ctrl.bytesPerActivate::640-767          753      0.15%     99.93% # Bytes accessed per row activation
system.mem_ctrl.bytesPerActivate::768-895          182      0.04%     99.97% # Bytes accessed per row activation
system.mem_ctrl.bytesPerActivate::896-1023           67      0.01%     99.98% # Bytes accessed per row activation
system.mem_ctrl.bytesPerActivate::1024-1151           98      0.02%    100.00% # Bytes accessed per row activation
system.mem_ctrl.bytesPerActivate::total        501994                       # Bytes accessed per row activation
system.mem_ctrl.rdPerTurnAround::samples          101                       # Reads before turning the bus around for writes
system.mem_ctrl.rdPerTurnAround::mean    11166.663366                       # Reads before turning the bus around for writes
system.mem_ctrl.rdPerTurnAround::gmean    9886.948812                       # Reads before turning the bus around for writes
system.mem_ctrl.rdPerTurnAround::stdev    2770.371240                       # Reads before turning the bus around for writes
system.mem_ctrl.rdPerTurnAround::0-511              3      2.97%      2.97% # Reads before turning the bus around for writes
system.mem_ctrl.rdPerTurnAround::512-1023            1      0.99%      3.96% # Reads before turning the bus around for writes
system.mem_ctrl.rdPerTurnAround::1024-1535            2      1.98%      5.94% # Reads before turning the bus around for writes
system.mem_ctrl.rdPerTurnAround::9216-9727            1      0.99%      6.93% # Reads before turning the bus around for writes
system.mem_ctrl.rdPerTurnAround::9728-10239            2      1.98%      8.91% # Reads before turning the bus around for writes
system.mem_ctrl.rdPerTurnAround::10240-10751            3      2.97%     11.88% # Reads before turning the bus around for writes
system.mem_ctrl.rdPerTurnAround::10752-11263           18     17.82%     29.70% # Reads before turning the bus around for writes
system.mem_ctrl.rdPerTurnAround::11264-11775           14     13.86%     43.56% # Reads before turning the bus around for writes
system.mem_ctrl.rdPerTurnAround::11776-12287           39     38.61%     82.18% # Reads before turning the bus around for writes
system.mem_ctrl.rdPerTurnAround::12288-12799           15     14.85%     97.03% # Reads before turning the bus around for writes
system.mem_ctrl.rdPerTurnAround::14848-15359            3      2.97%    100.00% # Reads before turning the bus around for writes
system.mem_ctrl.rdPerTurnAround::total            101                       # Reads before turning the bus around for writes
system.mem_ctrl.wrPerTurnAround::samples          101                       # Writes before turning the bus around for reads
system.mem_ctrl.wrPerTurnAround::mean              16                       # Writes before turning the bus around for reads
system.mem_ctrl.wrPerTurnAround::gmean      16.000000                       # Writes before turning the bus around for reads
system.mem_ctrl.wrPerTurnAround::16               101    100.00%    100.00% # Writes before turning the bus around for reads
system.mem_ctrl.wrPerTurnAround::total            101                       # Writes before turning the bus around for reads
system.mem_ctrl.bytesReadDRAM                72738048                       # Total number of bytes read from DRAM
system.mem_ctrl.bytesReadWrQ                     3904                       # Total number of bytes read from write queue
system.mem_ctrl.bytesWritten                   103424                       # Total number of bytes written to DRAM
system.mem_ctrl.bytesReadSys                 72741952                       # Total read bytes from the system interface side
system.mem_ctrl.bytesWrittenSys                108928                       # Total written bytes from the system interface side
system.mem_ctrl.avgRdBW                       3175.40                       # Average DRAM read bandwidth in MiByte/s
system.mem_ctrl.avgWrBW                          4.52                       # Average achieved write bandwidth in MiByte/s
system.mem_ctrl.avgRdBWSys                    3175.57                       # Average system read bandwidth in MiByte/s
system.mem_ctrl.avgWrBWSys                       4.76                       # Average system write bandwidth in MiByte/s
system.mem_ctrl.peakBW                       12800.00                       # Theoretical peak bandwidth in MiByte/s
system.mem_ctrl.busUtil                         24.84                       # Data bus utilization in percentage
system.mem_ctrl.busUtilRead                     24.81                       # Data bus utilization in percentage for reads
system.mem_ctrl.busUtilWrite                     0.04                       # Data bus utilization in percentage for writes
system.mem_ctrl.totGap                    22906723000                       # Total gap between requests
system.mem_ctrl.avgGap                       20123.71                       # Average gap between requests
system.mem_ctrl.masterReadBytes::.cpu.inst        20288                       # Per-master bytes read from memory
system.mem_ctrl.masterReadBytes::.cpu.data     72717760                       # Per-master bytes read from memory
system.mem_ctrl.masterWriteBytes::.writebacks       103424                       # Per-master bytes write to memory
system.mem_ctrl.masterReadRate::.cpu.inst 885678.305033143726                       # Per-master bytes read from memory rate (Bytes/sec)
system.mem_ctrl.masterReadRate::.cpu.data 3174514117.833543777466                       # Per-master bytes read from memory rate (Bytes/sec)
system.mem_ctrl.masterWriteRate::.writebacks 4515003.599159495905                       # Per-master bytes write to memory rate (Bytes/sec)
system.mem_ctrl.masterReadAccesses::.cpu.inst          317                       # Per-master read serviced memory accesses
[...]
system.cpu.icache.overall_mshr_misses::total          317                       # number of overall MSHR misses
system.cpu.icache.demand_mshr_miss_latency::.cpu.inst     17978000                       # number of demand (read+write) MSHR miss cycles
system.cpu.icache.demand_mshr_miss_latency::total     17978000                       # number of demand (read+write) MSHR miss cycles
system.cpu.icache.overall_mshr_miss_latency::.cpu.inst     17978000                       # number of overall MSHR miss cycles
system.cpu.icache.overall_mshr_miss_latency::total     17978000                       # number of overall MSHR miss cycles
system.cpu.icache.demand_mshr_miss_rate::.cpu.inst     0.000096                       # mshr miss rate for demand accesses
system.cpu.icache.demand_mshr_miss_rate::total     0.000096                       # mshr miss rate for demand accesses
system.cpu.icache.overall_mshr_miss_rate::.cpu.inst     0.000096                       # mshr miss rate for overall accesses
system.cpu.icache.overall_mshr_miss_rate::total     0.000096                       # mshr miss rate for overall accesses
system.cpu.icache.demand_avg_mshr_miss_latency::.cpu.inst 56712.933754                       # average overall mshr miss latency
system.cpu.icache.demand_avg_mshr_miss_latency::total 56712.933754                       # average overall mshr miss latency
system.cpu.icache.overall_avg_mshr_miss_latency::.cpu.inst 56712.933754                       # average overall mshr miss latency
system.cpu.icache.overall_avg_mshr_miss_latency::total 56712.933754                       # average overall mshr miss latency
system.cpu.icache.replacements                      0                       # number of replacements
system.cpu.icache.ReadReq_hits::.cpu.inst      3317467                       # number of ReadReq hits
system.cpu.icache.ReadReq_hits::total         3317467                       # number of ReadReq hits
system.cpu.icache.ReadReq_misses::.cpu.inst          414                       # number of ReadReq misses
system.cpu.icache.ReadReq_misses::total           414                       # number of ReadReq misses
system.cpu.icache.ReadReq_miss_latency::.cpu.inst     22272000                       # number of ReadReq miss cycles
system.cpu.icache.ReadReq_miss_latency::total     22272000                       # number of ReadReq miss cycles
system.cpu.icache.ReadReq_accesses::.cpu.inst      3317881                       # number of ReadReq accesses(hits+misses)
system.cpu.icache.ReadReq_accesses::total      3317881                       # number of ReadReq accesses(hits+misses)
system.cpu.icache.ReadReq_miss_rate::.cpu.inst     0.000125                       # miss rate for ReadReq accesses
system.cpu.icache.ReadReq_miss_rate::total     0.000125                       # miss rate for ReadReq accesses
system.cpu.icache.ReadReq_avg_miss_latency::.cpu.inst 53797.101449                       # average ReadReq miss latency
system.cpu.icache.ReadReq_avg_miss_latency::total 53797.101449                       # average ReadReq miss latency
system.cpu.icache.ReadReq_mshr_hits::.cpu.inst           97                       # number of ReadReq MSHR hits
system.cpu.icache.ReadReq_mshr_hits::total           97                       # number of ReadReq MSHR hits
system.cpu.icache.ReadReq_mshr_misses::.cpu.inst          317                       # number of ReadReq MSHR misses
system.cpu.icache.ReadReq_mshr_misses::total          317                       # number of ReadReq MSHR misses
system.cpu.icache.ReadReq_mshr_miss_latency::.cpu.inst     17978000                       # number of ReadReq MSHR miss cycles
system.cpu.icache.ReadReq_mshr_miss_latency::total     17978000                       # number of ReadReq MSHR miss cycles
system.cpu.icache.ReadReq_mshr_miss_rate::.cpu.inst     0.000096                       # mshr miss rate for ReadReq accesses
system.cpu.icache.ReadReq_mshr_miss_rate::total     0.000096                       # mshr miss rate for ReadReq accesses
system.cpu.icache.ReadReq_avg_mshr_miss_latency::.cpu.inst 56712.933754                       # average ReadReq mshr miss latency
system.cpu.icache.ReadReq_avg_mshr_miss_latency::total 56712.933754                       # average ReadReq mshr miss latency
system.cpu.icache.tags.pwrStateResidencyTicks::UNDEFINED  22906737000                       # Cumulative time (in ticks) in various power states
system.cpu.icache.tags.tagsinuse           292.870011                       # Cycle average of tags in use
system.cpu.icache.tags.total_refs             3317783                       # Total number of references to valid blocks.
system.cpu.icache.tags.sampled_refs               316                       # Sample count of references to valid blocks.
system.cpu.icache.tags.avg_refs          10499.313291                       # Average number of references to valid blocks.
system.cpu.icache.tags.warmup_cycle             77000                       # Cycle when the warmup percentage was hit.
system.cpu.icache.tags.occ_blocks::.cpu.inst   292.870011                       # Average occupied blocks per requestor
system.cpu.icache.tags.occ_percent::.cpu.inst     0.143003                       # Average percentage of cache occupancy
system.cpu.icache.tags.occ_percent::total     0.143003                       # Average percentage of cache occupancy
system.cpu.icache.tags.occ_task_id_blocks::1024          316                       # Occupied blocks per task id
system.cpu.icache.tags.age_task_id_blocks_1024::0           23                       # Occupied blocks per task id
system.cpu.icache.tags.age_task_id_blocks_1024::4          293                       # Occupied blocks per task id
system.cpu.icache.tags.occ_task_id_percent::1024     0.154297                       # Percentage of cache occupancy per task id
system.cpu.icache.tags.tag_accesses           6636078                       # Number of tag accesses
system.cpu.icache.tags.data_accesses          6636078                       # Number of data accesses
system.cpu.dtb.walker.pwrStateResidencyTicks::UNDEFINED  22906737000                       # Cumulative time (in ticks) in various power states
system.cpu.interrupts.clk_domain.clock          16000                       # Clock period in ticks
system.cpu.itb.walker.pwrStateResidencyTicks::UNDEFINED  22906737000                       # Cumulative time (in ticks) in various power states
system.cpu.dcache.pwrStateResidencyTicks::UNDEFINED  22906737000                       # Cumulative time (in ticks) in various power states
system.cpu.dcache.demand_hits::.cpu.data      2463486                       # number of demand (read+write) hits
system.cpu.dcache.demand_hits::total          2463486                       # number of demand (read+write) hits
system.cpu.dcache.overall_hits::.cpu.data      2463486                       # number of overall hits
system.cpu.dcache.overall_hits::total         2463486                       # number of overall hits
system.cpu.dcache.demand_misses::.cpu.data      2390537                       # number of demand (read+write) misses
system.cpu.dcache.demand_misses::total        2390537                       # number of demand (read+write) misses
system.cpu.dcache.overall_misses::.cpu.data      2390537                       # number of overall misses
system.cpu.dcache.overall_misses::total       2390537                       # number of overall misses
system.cpu.dcache.demand_miss_latency::.cpu.data 142220584000                       # number of demand (read+write) miss cycles
system.cpu.dcache.demand_miss_latency::total 142220584000                       # number of demand (read+write) miss cycles
system.cpu.dcache.overall_miss_latency::.cpu.data 142220584000                       # number of overall miss cycles
system.cpu.dcache.overall_miss_latency::total 142220584000                       # number of overall miss cycles
system.cpu.dcache.demand_accesses::.cpu.data      4854023                       # number of demand (read+write) accesses
system.cpu.dcache.demand_accesses::total      4854023                       # number of demand (read+write) accesses
system.cpu.dcache.overall_accesses::.cpu.data      4854023                       # number of overall (read+write) accesses
system.cpu.dcache.overall_accesses::total      4854023                       # number of overall (read+write) accesses
system.cpu.dcache.demand_miss_rate::.cpu.data     0.492486                       # miss rate for demand accesses
system.cpu.dcache.demand_miss_rate::total     0.492486                       # miss rate for demand accesses
system.cpu.dcache.overall_miss_rate::.cpu.data     0.492486                       # miss rate for overall accesses
system.cpu.dcache.overall_miss_rate::total     0.492486                       # miss rate for overall accesses
system.cpu.dcache.demand_avg_miss_latency::.cpu.data 59493.153212                       # average overall miss latency
system.cpu.dcache.demand_avg_miss_latency::total 59493.153212                       # average overall miss latency
system.cpu.dcache.overall_avg_miss_latency::.cpu.data 59493.153212                       # average overall miss latency
system.cpu.dcache.overall_avg_miss_latency::total 59493.153212                       # average overall miss latency
system.cpu.dcache.blocked_cycles::no_mshrs     17336656                       # number of cycles access was blocked
system.cpu.dcache.blocked_cycles::no_targets            0                       # number of cycles access was blocked
system.cpu.dcache.blocked::no_mshrs            910957                       # number of cycles access was blocked
system.cpu.dcache.blocked::no_targets               0                       # number of cycles access was blocked
system.cpu.dcache.avg_blocked_cycles::no_mshrs    19.031256                       # average number of cycles each access was blocked
system.cpu.dcache.avg_blocked_cycles::no_targets          nan                       # average number of cycles each access was blocked
system.cpu.dcache.writebacks::.writebacks         1702                       # number of writebacks
system.cpu.dcache.writebacks::total              1702                       # number of writebacks
system.cpu.dcache.demand_mshr_hits::.cpu.data      1254261                       # number of demand (read+write) MSHR hits
system.cpu.dcache.demand_mshr_hits::total      1254261                       # number of demand (read+write) MSHR hits
system.cpu.dcache.overall_mshr_hits::.cpu.data      1254261                       # number of overall MSHR hits
system.cpu.dcache.overall_mshr_hits::total      1254261                       # number of overall MSHR hits
system.cpu.dcache.demand_mshr_misses::.cpu.data      1136276                       # number of demand (read+write) MSHR misses
system.cpu.dcache.demand_mshr_misses::total      1136276                       # number of demand (read+write) MSHR misses
system.cpu.dcache.overall_mshr_misses::.cpu.data      1136276                       # number of overall MSHR misses
system.cpu.dcache.overall_mshr_misses::total      1136276                       # number of overall MSHR misses
system.cpu.dcache.demand_mshr_miss_latency::.cpu.data  83900407000                       # number of demand (read+write) MSHR miss cycles
system.cpu.dcache.demand_mshr_miss_latency::total  83900407000                       # number of demand (read+write) MSHR miss cycles
system.cpu.dcache.overall_mshr_miss_latency::.cpu.data  83900407000                       # number of overall MSHR miss cycles
system.cpu.dcache.overall_mshr_miss_latency::total  83900407000                       # number of overall MSHR miss cycles
system.cpu.dcache.demand_mshr_miss_rate::.cpu.data     0.234090                       # mshr miss rate for demand accesses
system.cpu.dcache.demand_mshr_miss_rate::total     0.234090                       # mshr miss rate for demand accesses
system.cpu.dcache.overall_mshr_miss_rate::.cpu.data     0.234090                       # mshr miss rate for overall accesses
system.cpu.dcache.overall_mshr_miss_rate::total     0.234090                       # mshr miss rate for overall accesses
system.cpu.dcache.demand_avg_mshr_miss_latency::.cpu.data 73838.052551                       # average overall mshr miss latency
system.cpu.dcache.demand_avg_mshr_miss_latency::total 73838.052551                       # average overall mshr miss latency
system.cpu.dcache.overall_avg_mshr_miss_latency::.cpu.data 73838.052551                       # average overall mshr miss latency
system.cpu.dcache.overall_avg_mshr_miss_latency::total 73838.052551                       # average overall mshr miss latency
system.cpu.dcache.replacements                1134228                       # number of replacements
system.cpu.dcache.ReadReq_hits::.cpu.data      2437987                       # number of ReadReq hits
system.cpu.dcache.ReadReq_hits::total         2437987                       # number of ReadReq hits
system.cpu.dcache.ReadReq_misses::.cpu.data      2390445                       # number of ReadReq misses
system.cpu.dcache.ReadReq_misses::total       2390445                       # number of ReadReq misses
system.cpu.dcache.ReadReq_miss_latency::.cpu.data 142214886000                       # number of ReadReq miss cycles
system.cpu.dcache.ReadReq_miss_latency::total 142214886000                       # number of ReadReq miss cycles
system.cpu.dcache.ReadReq_accesses::.cpu.data      4828432                       # number of ReadReq accesses(hits+misses)
system.cpu.dcache.ReadReq_accesses::total      4828432                       # number of ReadReq accesses(hits+misses)
system.cpu.dcache.ReadReq_miss_rate::.cpu.data     0.495077                       # miss rate for ReadReq accesses
system.cpu.dcache.ReadReq_miss_rate::total     0.495077                       # miss rate for ReadReq accesses
system.cpu.dcache.ReadReq_avg_miss_latency::.cpu.data 59493.059242                       # average ReadReq miss latency
system.cpu.dcache.ReadReq_avg_miss_latency::total 59493.059242                       # average ReadReq miss latency
system.cpu.dcache.ReadReq_mshr_hits::.cpu.data      1254260                       # number of ReadReq MSHR hits
system.cpu.dcache.ReadReq_mshr_hits::total      1254260                       # number of ReadReq MSHR hits
system.cpu.dcache.ReadReq_mshr_misses::.cpu.data      1136185                       # number of ReadReq MSHR misses
system.cpu.dcache.ReadReq_mshr_misses::total      1136185                       # number of ReadReq MSHR misses
system.cpu.dcache.ReadReq_mshr_miss_latency::.cpu.data  83894929000                       # number of ReadReq MSHR miss cycles
system.cpu.dcache.ReadReq_mshr_miss_latency::total  83894929000                       # number of ReadReq MSHR miss cycles
system.cpu.dcache.ReadReq_mshr_miss_rate::.cpu.data     0.235311                       # mshr miss rate for ReadReq accesses
system.cpu.dcache.ReadReq_mshr_miss_rate::total     0.235311                       # mshr miss rate for ReadReq accesses
system.cpu.dcache.ReadReq_avg_mshr_miss_latency::.cpu.data 73839.145034                       # average ReadReq mshr miss latency
system.cpu.dcache.ReadReq_avg_mshr_miss_latency::total 73839.145034                       # average ReadReq mshr miss latency
system.cpu.dcache.WriteReq_hits::.cpu.data        25499                       # number of WriteReq hits
system.cpu.dcache.WriteReq_hits::total          25499                       # number of WriteReq hits
system.cpu.dcache.WriteReq_misses::.cpu.data           92                       # number of WriteReq misses
system.cpu.dcache.WriteReq_misses::total           92                       # number of WriteReq misses
system.cpu.dcache.WriteReq_miss_latency::.cpu.data      5698000                       # number of WriteReq miss cycles
system.cpu.dcache.WriteReq_miss_latency::total      5698000                       # number of WriteReq miss cycles
system.cpu.dcache.WriteReq_accesses::.cpu.data        25591                       # number of WriteReq accesses(hits+misses)
system.cpu.dcache.WriteReq_accesses::total        25591                       # number of WriteReq accesses(hits+misses)
system.cpu.dcache.WriteReq_miss_rate::.cpu.data     0.003595                       # miss rate for WriteReq accesses
system.cpu.dcache.WriteReq_miss_rate::total     0.003595                       # miss rate for WriteReq accesses
system.cpu.dcache.WriteReq_avg_miss_latency::.cpu.data 61934.782609                       # average WriteReq miss latency
system.cpu.dcache.WriteReq_avg_miss_latency::total 61934.782609                       # average WriteReq miss latency
system.cpu.dcache.WriteReq_mshr_hits::.cpu.data            1                       # number of WriteReq MSHR hits
system.cpu.dcache.WriteReq_mshr_hits::total            1                       # number of WriteReq MSHR hits
system.cpu.dcache.WriteReq_mshr_misses::.cpu.data           91                       # number of WriteReq MSHR misses
system.cpu.dcache.WriteReq_mshr_misses::total           91                       # number of WriteReq MSHR misses
system.cpu.dcache.WriteReq_mshr_miss_latency::.cpu.data      5478000                       # number of WriteReq MSHR miss cycles
system.cpu.dcache.WriteReq_mshr_miss_latency::total      5478000                       # number of WriteReq MSHR miss cycles
system.cpu.dcache.WriteReq_mshr_miss_rate::.cpu.data     0.003556                       # mshr miss rate for WriteReq accesses
system.cpu.dcache.WriteReq_mshr_miss_rate::total     0.003556                       # mshr miss rate for WriteReq accesses
system.cpu.dcache.WriteReq_avg_mshr_miss_latency::.cpu.data 60197.802198                       # average WriteReq mshr miss latency
system.cpu.dcache.WriteReq_avg_mshr_miss_latency::total 60197.802198                       # average WriteReq mshr miss latency
system.cpu.dcache.tags.pwrStateResidencyTicks::UNDEFINED  22906737000                       # Cumulative time (in ticks) in various power states
system.cpu.dcache.tags.tagsinuse          2044.240193                       # Cycle average of tags in use
system.cpu.dcache.tags.total_refs             3599762                       # Total number of references to valid blocks.
system.cpu.dcache.tags.sampled_refs           1136276                       # Sample count of references to valid blocks.
system.cpu.dcache.tags.avg_refs              3.168035                       # Average number of references to valid blocks.
system.cpu.dcache.tags.warmup_cycle            150000                       # Cycle when the warmup percentage was hit.
system.cpu.dcache.tags.occ_blocks::.cpu.data  2044.240193                       # Average occupied blocks per requestor
system.cpu.dcache.tags.occ_percent::.cpu.data     0.998164                       # Average percentage of cache occupancy
system.cpu.dcache.tags.occ_percent::total     0.998164                       # Average percentage of cache occupancy
system.cpu.dcache.tags.occ_task_id_blocks::1024         2048                       # Occupied blocks per task id
system.cpu.dcache.tags.age_task_id_blocks_1024::0          429                       # Occupied blocks per task id
system.cpu.dcache.tags.age_task_id_blocks_1024::1         1546                       # Occupied blocks per task id
system.cpu.dcache.tags.age_task_id_blocks_1024::2           73                       # Occupied blocks per task id
system.cpu.dcache.tags.occ_task_id_percent::1024            1                       # Percentage of cache occupancy per task id
system.cpu.dcache.tags.tag_accesses          10844322                       # Number of tag accesses
system.cpu.dcache.tags.data_accesses         10844322                       # Number of data accesses

---------- End Simulation Statistics   ----------
