
---------- Begin Simulation Statistics ----------
final_tick                                 6443836000                       # Number of ticks from beginning of simulation (restored from checkpoints and never reset)
host_inst_rate                                 187412                       # Simulator instruction rate (inst/s)
host_mem_usage                                 794392                       # Number of bytes of host memory used
host_op_rate                                   308069                       # Simulator op (including micro ops) rate (op/s)
host_seconds                                    15.48                       # Real time elapsed on the host
host_tick_rate                              416375815                       # Simulator tick rate (ticks/s)
sim_freq                                 1000000000000                       # Frequency of simulated ticks
sim_insts                                     2900361                       # Number of instructions simulated
sim_ops                                       4767671                       # Number of ops (including micro ops) simulated
sim_seconds                                  0.006444                       # Number of seconds simulated
sim_ticks                                  6443836000                       # Number of ticks simulated
system.cpu.branchPred.BTBCorrect                    0                       # Number of correct BTB predictions (this stat may not work properly.
system.cpu.branchPred.BTBHitPct              0.000000                       # BTB Hit Percentage
system.cpu.branchPred.BTBHits                       0                       # Number of BTB hits
system.cpu.branchPred.BTBLookups                    6                       # Number of BTB lookups
system.cpu.branchPred.RASInCorrect                  0                       # Number of incorrect RAS predictions.
system.cpu.branchPred.condIncorrect                 6                       # Number of conditional branches incorrect
system.cpu.branchPred.condPredicted                12                       # Number of conditional branches predicted
system.cpu.branchPred.indirectHits                  0                       # Number of indirect target hits.
system.cpu.branchPred.indirectLookups               6                       # Number of indirect predictor lookups.
system.cpu.branchPred.indirectMisses                6                       # Number of indirect misses.
system.cpu.branchPred.lookups                      12                       # Number of BP lookups
system.cpu.branchPred.usedRAS                       0                       # Number of times the RAS was used to get a target.
system.cpu.branchPredindirectMispredicted            0                       # Number of mispredicted indirect branches.
system.cpu.committedInsts                     2900361                       # Number of instructions committed
system.cpu.committedOps                       4767671                       # Number of ops (including micro ops) committed
system.cpu.cpi                               2.221736                       # CPI: cycles per instruction
system.cpu.discardedOps                        995838                       # Number of ops (including micro ops) which were discarded before commit
system.cpu.dtb.rdAccesses                      532089                       # TLB accesses on read requests
system.cpu.dtb.rdMisses                            47                       # TLB misses on read requests
system.cpu.dtb.wrAccesses                      437999                       # TLB accesses on write requests
system.cpu.dtb.wrMisses                            16                       # TLB misses on write requests
system.cpu.fetch2.amo_instructions                  0                       # Number of memory atomic instructions successfully decoded
system.cpu.fetch2.fp_instructions                   0                       # Number of floating point instructions successfully decoded
system.cpu.fetch2.int_instructions                  8                       # Number of integer instructions successfully decoded
system.cpu.fetch2.load_instructions                 0                       # Number of memory load instructions successfully decoded
system.cpu.fetch2.store_instructions                0                       # Number of memory store instructions successfully decoded
system.cpu.fetch2.vec_instructions                  0                       # Number of SIMD instructions successfully decoded
system.cpu.idleCycles                          115949                       # Total number of cycles that the object has spent stopped
system.cpu.ipc                               0.450099                       # IPC: instructions per cycle
system.cpu.itb.rdAccesses                           0                       # TLB accesses on read requests
system.cpu.itb.rdMisses                             0                       # TLB misses on read requests
system.cpu.itb.wrAccesses                      945971                       # TLB accesses on write requests
system.cpu.itb.wrMisses                            31                       # TLB misses on write requests
system.cpu.numCycles                          6443836                       # number of cpu cycles simulated
system.cpu.numFetchSuspends                         0                       # Number of times Execute suspended instruction fetching
system.cpu.numWorkItemsCompleted                    0                       # number of work items this cpu completed
system.cpu.numWorkItemsStarted                      0                       # number of work items this cpu started
system.cpu.op_class_0::No_OpClass                8230      0.17%      0.17% # Class of committed instruction
system.cpu.op_class_0::IntAlu                 4009725     84.10%     84.28% # Class of committed instruction
system.cpu.op_class_0::IntMult                      5      0.00%     84.28% # Class of committed instruction
system.cpu.op_class_0::IntDiv                      21      0.00%     84.28% # Class of committed instruction
system.cpu.op_class_0::FloatAdd                     2      0.00%     84.28% # Class of committed instruction
system.cpu.op_class_0::FloatCmp                     0      0.00%     84.28% # Class of committed instruction
system.cpu.op_class_0::FloatCvt                     0      0.00%     84.28% # Class of committed instruction
system.cpu.op_class_0::FloatMult                    0      0.00%     84.28% # Class of committed instruction
system.cpu.op_class_0::FloatMultAcc                 0      0.00%     84.28% # Class of committed instruction
system.cpu.op_class_0::FloatDiv                     0      0.00%     84.28% # Class of committed instruction
system.cpu.op_class_0::FloatMisc                    0      0.00%     84.28% # Class of committed instruction
system.cpu.op_class_0::FloatSqrt                    0      0.00%     84.28% # Class of committed instruction
system.cpu.op_class_0::SimdAdd                      0      0.00%     84.28% # Class of committed instruction
system.cpu.op_class_0::SimdAddAcc                   0      0.00%     84.28% # Class of committed instruction
system.cpu.op_class_0::SimdAlu                     34      0.00%     84.28% # Class of committed instruction
system.cpu.op_class_0::SimdCmp                      0      0.00%     84.28% # Class of committed instruction
system.cpu.op_class_0::SimdCvt                     28      0.00%     84.28% # Class of committed instruction
system.cpu.op_class_0::SimdMisc                    42      0.00%     84.28% # Class of committed instruction
system.cpu.op_class_0::SimdMult                     0      0.00%     84.28% # Class of committed instruction
system.cpu.op_class_0::SimdMultAcc                  0      0.00%     84.28% # Class of committed instruction
system.cpu.op_class_0::SimdShift                    0      0.00%     84.28% # Class of committed instruction
system.cpu.op_class_0::SimdShiftAcc                 0      0.00%     84.28% # Class of committed instruction
system.cpu.op_class_0::SimdDiv                      0      0.00%     84.28% # Class of committed instruction
system.cpu.op_class_0::SimdSqrt                     0      0.00%     84.28% # Class of committed instruction
system.cpu.op_class_0::SimdFloatAdd                 0      0.00%     84.28% # Class of committed instruction
system.cpu.op_class_0::SimdFloatAlu                 0      0.00%     84.28% # Class of committed instruction
system.cpu.op_class_0::SimdFloatCmp                 0      0.00%     84.28% # Class of committed instruction
system.cpu.op_class_0::SimdFloatCvt                 0      0.00%     84.28% # Class of committed instruction
system.cpu.op_class_0::SimdFloatDiv                 0      0.00%     84.28% # Class of committed instruction
system.cpu.op_class_0::SimdFloatMisc                0      0.00%     84.28% # Class of committed instruction
system.cpu.op_class_0::SimdFloatMult                0      0.00%     84.28% # Class of committed instruction
system.cpu.op_class_0::SimdFloatMultAcc             0      0.00%     84.28% # Class of committed instruction
system.cpu.op_class_0::SimdFloatSqrt                0      0.00%     84.28% # Class of committed instruction
system.cpu.op_class_0::SimdReduceAdd                0      0.00%     84.28% # Class of committed instruction
system.cpu.op_class_0::SimdReduceAlu                0      0.00%     84.28% # Class of committed instruction
system.cpu.op_class_0::SimdReduceCmp                0      0.00%     84.28% # Class of committed instruction
system.cpu.op_class_0::SimdFloatReduceAdd            0      0.00%     84.28% # Class of committed instruction
system.cpu.op_class_0::SimdFloatReduceCmp            0      0.00%     84.28% # Class of committed instruction
system.cpu.op_class_0::SimdAes                      0      0.00%     84.28% # Class of committed instruction
system.cpu.op_class_0::SimdAesMix                   0      0.00%     84.28% # Class of committed instruction
system.cpu.op_class_0::SimdSha1Hash                 0      0.00%     84.28% # Class of committed instruction
system.cpu.op_class_0::SimdSha1Hash2                0      0.00%     84.28% # Class of committed instruction
system.cpu.op_class_0::SimdSha256Hash               0      0.00%     84.28% # Class of committed instruction
system.cpu.op_class_0::SimdSha256Hash2              0      0.00%     84.28% # Class of committed instruction
system.cpu.op_class_0::SimdShaSigma2                0      0.00%     84.28% # Class of committed instruction
system.cpu.op_class_0::SimdShaSigma3                0      0.00%     84.28% # Class of committed instruction
system.cpu.op_class_0::SimdPredAlu                  0      0.00%     84.28% # Class of committed instruction
system.cpu.op_class_0::MemRead                 420715      8.82%     93.10% # Class of committed instruction
system.cpu.op_class_0::MemWrite                328693      6.89%    100.00% # Class of committed instruction
system.cpu.op_class_0::FloatMemRead                24      0.00%    100.00% # Class of committed instruction
system.cpu.op_class_0::FloatMemWrite              152      0.00%    100.00% # Class of committed instruction
system.cpu.op_class_0::IprAccess                    0      0.00%    100.00% # Class of committed instruction
system.cpu.op_class_0::InstPrefetch                 0      0.00%    100.00% # Class of committed instruction
system.cpu.op_class_0::total                  4767671                       # Class of committed instruction
system.cpu.tickCycles                         6327887                       # Number of cycles that the object actually ticked
system.cpu.workload.numSyscalls                     7                       # Number of system calls
system.l2bus.snoop_filter.hit_multi_requests            1                       # Number of requests hitting in the snoop filter with multiple (>1) holders of the requested data.
system.l2bus.snoop_filter.hit_multi_snoops            0                       # Number of snoops hitting in the snoop filter with multiple (>1) holders of the requested data.
system.l2bus.snoop_filter.hit_single_requests           20                       # Number of requests hitting in the snoop filter with a single holder of the requested data.
system.l2bus.snoop_filter.hit_single_snoops            0                       # Number of snoops hitting in the snoop filter with a single holder of the requested data.
system.l2bus.snoop_filter.tot_requests           1596                       # Total number of requests made to the snoop filter.
system.l2bus.snoop_filter.tot_snoops                0                       # Total number of snoops made to the snoop filter.
system.membus.snoop_filter.hit_multi_requests            0                       # Number of requests hitting in the snoop filter with multiple (>1) holders of the requested data.
system.membus.snoop_filter.hit_multi_snoops            0                       # Number of snoops hitting in the snoop filter with multiple (>1) holders of the requested data.
system.membus.snoop_filter.hit_single_requests            0                       # Number of requests hitting in the snoop filter with a single holder of the requested data.
system.membus.snoop_filter.hit_single_snoops            0                       # Number of snoops hitting in the snoop filter with a single holder of the requested data.
system.membus.snoop_filter.tot_requests          1574                       # Total number of requests made to the snoop filter.
system.membus.snoop_filter.tot_snoops               0                       # Total number of snoops made to the snoop filter.
system.membus.pwrStateResidencyTicks::UNDEFINED   6443836000                       # Cumulative time (in ticks) in various power states
system.membus.trans_dist::ReadResp                971                       # Transaction distribution
system.membus.trans_dist::ReadExReq               603                       # Transaction distribution
system.membus.trans_dist::ReadExResp              603                       # Transaction distribution
system.membus.trans_dist::ReadSharedReq           971                       # Transaction distribution
system.membus.pkt_count_system.l2cache.mem_side::system.mem_ctrl.port         3148                       # Packet count per connected master and slave (bytes)
system.membus.pkt_count_system.l2cache.mem_side::total         3148                       # Packet count per connected master and slave (bytes)
system.membus.pkt_count::total                   3148                       # Packet count per connected master and slave (bytes)
system.membus.pkt_size_system.l2cache.mem_side::system.mem_ctrl.port       100736                       # Cumulative packet size per connected master and slave (bytes)
system.membus.pkt_size_system.l2cache.mem_side::total       100736                       # Cumulative packet size per connected master and slave (bytes)
system.membus.pkt_size::total                  100736                       # Cumulative packet size per connected master and slave (bytes)
system.membus.snoops                                0                       # Total snoops (count)
system.membus.snoopTraffic                          0                       # Total snoop traffic (bytes)
system.membus.snoop_fanout::samples              1574                       # Request fanout histogram
system.membus.snoop_fanout::mean                    0                       # Request fanout histogram
system.membus.snoop_fanout::stdev                   0                       # Request fanout histogram
system.membus.snoop_fanout::underflows              0      0.00%      0.00% # Request fanout histogram
system.membus.snoop_fanout::0                    1574    100.00%    100.00% # Request fanout histogram
system.membus.snoop_fanout::1                       0      0.00%    100.00% # Request fanout histogram
system.membus.snoop_fanout::overflows               0      0.00%    100.00% # Request fanout histogram
system.membus.snoop_fanout::min_value               0                       # Request fanout histogram
system.membus.snoop_fanout::max_value               0                       # Request fanout histogram
system.membus.snoop_fanout::total                1574                       # Request fanout histogram
system.membus.reqLayer2.occupancy             1574000                       # Layer occupancy (ticks)
system.membus.reqLayer2.utilization               0.0                       # Layer utilization (%)
system.membus.respLayer0.occupancy            8521500                       # Layer occupancy (ticks)
system.membus.respLayer0.utilization              0.1                       # Layer utilization (%)
system.l2bus.pwrStateResidencyTicks::UNDEFINED   6443836000                       # Cumulative time (in ticks) in various power states
system.l2bus.trans_dist::ReadResp                 972                       # Transaction distribution
system.l2bus.trans_dist::WritebackDirty             5                       # Transaction distribution
system.l2bus.trans_dist::CleanEvict                15                       # Transaction distribution
system.l2bus.trans_dist::ReadExReq                603                       # Transaction distribution
system.l2bus.trans_dist::ReadExResp               603                       # Transaction distribution
system.l2bus.trans_dist::ReadSharedReq            973                       # Transaction distribution
system.l2bus.pkt_count_system.cpu.icache.mem_side::system.l2cache.cpu_side          779                       # Packet count per connected master and slave (bytes)
system.l2bus.pkt_count_system.cpu.dcache.mem_side::system.l2cache.cpu_side         2392                       # Packet count per connected master and slave (bytes)
system.l2bus.pkt_count::total                    3171                       # Packet count per connected master and slave (bytes)
system.l2bus.pkt_size_system.cpu.icache.mem_side::system.l2cache.cpu_side        24896                       # Cumulative packet size per connected master and slave (bytes)
system.l2bus.pkt_size_system.cpu.dcache.mem_side::system.l2cache.cpu_side        76224                       # Cumulative packet size per connected master and slave (bytes)
system.l2bus.pkt_size::total                   101120                       # Cumulative packet size per connected master and slave (bytes)
system.l2bus.snoops                                 0                       # Total snoops (count)
system.l2bus.snoopTraffic                           0                       # Total snoop traffic (bytes)
system.l2bus.snoop_fanout::samples               1576                       # Request fanout histogram
system.l2bus.snoop_fanout::mean              0.000635                       # Request fanout histogram
system.l2bus.snoop_fanout::stdev             0.025190                       # Request fanout histogram
system.l2bus.snoop_fanout::underflows               0      0.00%      0.00% # Request fanout histogram
system.l2bus.snoop_fanout::0                     1575     99.94%     99.94% # Request fanout histogram
system.l2bus.snoop_fanout::1                        1      0.06%    100.00% # Request fanout histogram
system.l2bus.snoop_fanout::2                        0      0.00%    100.00% # Request fanout histogram
system.l2bus.snoop_fanout::overflows                0      0.00%    100.00% # Request fanout histogram
system.l2bus.snoop_fanout::min_value                0                       # Request fanout histogram
system.l2bus.snoop_fanout::max_value                1                       # Request fanout histogram
system.l2bus.snoop_fanout::total                 1576                       # Request fanout histogram
system.l2bus.respLayer1.occupancy             3558000                       # Layer occupancy (ticks)
system.l2bus.respLayer1.utilization               0.1                       # Layer utilization (%)
system.l2bus.reqLayer0.occupancy              1606000                       # Layer occupancy (ticks)
system.l2bus.reqLayer0.utilization                0.0                       # Layer utilization (%)
system.l2bus.respLayer0.occupancy             1167000                       # Layer occupancy (ticks)
system.l2bus.respLayer0.utilization               0.0                       # Layer utilization (%)
system.clk_domain.clock                          1000                       # Clock period in ticks
system.clk_domain.voltage_domain.voltage            1                       # Voltage in Volts
system.cpu.pwrStateResidencyTicks::ON      6443836000                       # Cumulative time (in ticks) in various power states
system.cpu.icache.pwrStateResidencyTicks::UNDEFINED   6443836000                       # Cumulative time (in ticks) in various power states
system.cpu.icache.demand_hits::.cpu.inst       945581                       # number of demand (read+write) hits
system.cpu.icache.demand_hits::total           945581                       # number of demand (read+write) hits
system.cpu.icache.overall_hits::.cpu.inst       945581                       # number of overall hits
system.cpu.icache.overall_hits::total          945581                       # number of overall hits
system.cpu.icache.demand_misses::.cpu.inst          390                       # number of demand (read+write) misses
system.cpu.icache.demand_misses::total            390                       # number of demand (read+write) misses
system.cpu.icache.overall_misses::.cpu.inst          390                       # number of overall misses
system.cpu.icache.overall_misses::total           390                       # number of overall misses
system.cpu.icache.demand_miss_latency::.cpu.inst     39655000                       # number of demand (read+write) miss cycles
system.cpu.icache.demand_miss_latency::total     39655000                       # number of demand (read+write) miss cycles
system.cpu.icache.overall_miss_latency::.cpu.inst     39655000                       # number of overall miss cycles
system.cpu.icache.overall_miss_latency::total     39655000                       # number of overall miss cycles
system.cpu.icache.demand_accesses::.cpu.inst       945971                       # number of demand (read+write) accesses
system.cpu.icache.demand_accesses::total       945971                       # number of demand (read+write) accesses
system.cpu.icache.overall_accesses::.cpu.inst       945971                       # number of overall (read+write) accesses
system.cpu.icache.overall_accesses::total       945971                       # number of overall (read+write) accesses
system.cpu.icache.demand_miss_rate::.cpu.inst     0.000412                       # miss rate for demand accesses
system.cpu.icache.demand_miss_rate::total     0.000412                       # miss rate for demand accesses
system.cpu.icache.overall_miss_rate::.cpu.inst     0.000412                       # miss rate for overall accesses
system.cpu.icache.overall_miss_rate::total     0.000412                       # miss rate for overall accesses
system.cpu.icache.demand_avg_miss_latency::.cpu.inst 101679.487179                       # average overall miss latency
system.cpu.icache.demand_avg_miss_latency::total 101679.487179                       # average overall miss latency
system.cpu.icache.overall_avg_miss_latency::.cpu.inst 101679.487179                       # average overall miss latency
system.cpu.icache.overall_avg_miss_latency::total 101679.487179                       # average overall miss latency
system.cpu.icache.blocked_cycles::no_mshrs            0                       # number of cycles access was blocked
system.cpu.icache.blocked_cycles::no_targets            0                       # number of cycles access was blocked
system.cpu.icache.blocked::no_mshrs                 0                       # number of cycles access was blocked
system.cpu.icache.blocked::no_targets               0                       # number of cycles access was blocked
system.cpu.icache.avg_blocked_cycles::no_mshrs          nan                       # average number of cycles each access was blocked
system.cpu.icache.avg_blocked_cycles::no_targets          nan                       # average number of cycles each access was blocked
system.cpu.icache.demand_mshr_misses::.cpu.inst          390                       # number of demand (read+write) MSHR misses
system.cpu.icache.demand_mshr_misses::total          390                       # number of demand (read+write) MSHR misses
system.cpu.icache.overall_mshr_misses::.cpu.inst          390                       # number of overall MSHR misses
system.cpu.icache.overall_mshr_misses::total          390                       # number of overall MSHR misses
system.cpu.icache.demand_mshr_miss_latency::.cpu.inst     38877000                       # number of demand (read+write) MSHR miss cycles
system.cpu.icache.demand_mshr_miss_latency::total     38877000                       # number of demand (read+write) MSHR miss cycles
system.cpu.icache.overall_mshr_miss_latency::.cpu.inst     38877000                       # number of overall MSHR miss cycles
system.cpu.icache.overall_mshr_miss_latency::total     38877000                       # number of overall MSHR miss cycles
system.cpu.icache.demand_mshr_miss_rate::.cpu.inst     0.000412                       # mshr miss rate for demand accesses
system.cpu.icache.demand_mshr_miss_rate::total     0.000412                       # mshr miss rate for demand accesses
system.cpu.icache.overall_mshr_miss_rate::.cpu.inst     0.000412                       # mshr miss rate for overall accesses
system.cpu.icache.overall_mshr_miss_rate::total     0.000412                       # mshr miss rate for overall accesses
system.cpu.icache.demand_avg_mshr_miss_latency::.cpu.inst 99684.615385                       # average overall mshr miss latency
system.cpu.icache.demand_avg_mshr_miss_latency::total 99684.615385                       # average overall mshr miss latency
system.cpu.icache.overall_avg_mshr_miss_latency::.cpu.inst 99684.615385                       # average overall mshr miss latency
system.cpu.icache.overall_avg_mshr_miss_latency::total 99684.615385                       # average overall mshr miss latency
system.cpu.icache.replacements                      0                       # number of replacements
system.cpu.icache.ReadReq_hits::.cpu.inst       945581                       # number of ReadReq hits
system.cpu.icache.ReadReq_hits::total          945581                       # number of ReadReq hits
system.cpu.icache.ReadReq_misses::.cpu.inst          390                       # number of ReadReq misses
system.cpu.icache.ReadReq_misses::total           390                       # number of ReadReq misses
system.cpu.icache.ReadReq_miss_latency::.cpu.inst     39655000                       # number of ReadReq miss cycles
system.cpu.icache.ReadReq_miss_latency::total     39655000                       # number of ReadReq miss cycles
system.cpu.icache.ReadReq_accesses::.cpu.inst       945971                       # number of ReadReq accesses(hits+misses)
system.cpu.icache.ReadReq_accesses::total       945971                       # number of ReadReq accesses(hits+misses)
system.cpu.icache.ReadReq_miss_rate::.cpu.inst     0.000412                       # miss rate for ReadReq accesses
system.cpu.icache.ReadReq_miss_rate::total     0.000412                       # miss rate for ReadReq accesses
system.cpu.icache.ReadReq_avg_miss_latency::.cpu.inst 101679.487179                       # average ReadReq miss latency
system.cpu.icache.ReadReq_avg_miss_latency::total 101679.487179                       # average ReadReq miss latency
system.cpu.icache.ReadReq_mshr_misses::.cpu.inst          390                       # number of ReadReq MSHR misses
system.cpu.icache.ReadReq_mshr_misses::total          390                       # number of ReadReq MSHR misses
system.cpu.icache.ReadReq_mshr_miss_latency::.cpu.inst     38877000                       # number of ReadReq MSHR miss cycles
system.cpu.icache.ReadReq_mshr_miss_latency::total     38877000                       # number of ReadReq MSHR miss cycles
system.cpu.icache.ReadReq_mshr_miss_rate::.cpu.inst     0.000412                       # mshr miss rate for ReadReq accesses
system.cpu.icache.ReadReq_mshr_miss_rate::total     0.000412                       # mshr miss rate for ReadReq accesses
system.cpu.icache.ReadReq_avg_mshr_miss_latency::.cpu.inst 99684.615385                       # average ReadReq mshr miss latency
system.cpu.icache.ReadReq_avg_mshr_miss_latency::total 99684.615385                       # average ReadReq mshr miss latency
system.cpu.icache.tags.pwrStateResidencyTicks::UNDEFINED   6443836000                       # Cumulative time (in ticks) in various power states
system.cpu.icache.tags.tagsinuse           362.461082                       # Cycle average of tags in use
system.cpu.icache.tags.total_refs              945970                       # Total number of references to valid blocks.
system.cpu.icache.tags.sampled_refs               389                       # Sample count of references to valid blocks.
system.cpu.icache.tags.avg_refs           2431.799486                       # Average number of references to valid blocks.
system.cpu.icache.tags.warmup_cycle            108000                       # Cycle when the warmup percentage was hit.
system.cpu.icache.tags.occ_blocks::.cpu.inst   362.461082                       # Average occupied blocks per requestor
system.cpu.icache.tags.occ_percent::.cpu.inst     0.176983                       # Average percentage of cache occupancy
system.cpu.icache.tags.occ_percent::total     0.176983                       # Average percentage of cache occupancy
system.cpu.icache.tags.occ_task_id_blocks::1024          389                       # Occupied blocks per task id
system.cpu.icache.tags.age_task_id_blocks_1024::0           25                       # Occupied blocks per task id
system.cpu.icache.tags.age_task_id_blocks_1024::3          364                       # Occupied blocks per task id
system.cpu.icache.tags.occ_task_id_percent::1024     0.189941                       # Percentage of cache occupancy per task id
system.cpu.icache.tags.tag_accesses           1892331                       # Number of tag accesses
system.cpu.icache.tags.data_accesses          1892331                       # Number of data accesses
system.cpu.dtb.walker.pwrStateResidencyTicks::UNDEFINED   6443836000                       # Cumulative time (in ticks) in various power states
system.cpu.interrupts.clk_domain.clock          16000                       # Clock period in ticks
system.cpu.dcache.pwrStateResidencyTicks::UNDEFINED   6443836000                       # Cumulative time (in ticks) in various power states
system.cpu.dcache.demand_hits::.cpu.data       858119                       # number of demand (read+write) hits
system.cpu.dcache.demand_hits::total           858119                       # number of demand (read+write) hits
system.cpu.dcache.overall_hits::.cpu.data       858119                       # number of overall hits
system.cpu.dcache.overall_hits::total          858119                       # number of overall hits
system.cpu.dcache.demand_misses::.cpu.data         1776                       # number of demand (read+write) misses
system.cpu.dcache.demand_misses::total           1776                       # number of demand (read+write) misses
system.cpu.dcache.overall_misses::.cpu.data         1776                       # number of overall misses
system.cpu.dcache.overall_misses::total          1776                       # number of overall misses
system.cpu.dcache.demand_miss_latency::.cpu.data    167823000                       # number of demand (read+write) miss cycles
system.cpu.dcache.demand_miss_latency::total    167823000                       # number of demand (read+write) miss cycles
system.cpu.dcache.overall_miss_latency::.cpu.data    167823000                       # number of overall miss cycles
system.cpu.dcache.overall_miss_latency::total    167823000                       # number of overall miss cycles
system.cpu.dcache.demand_accesses::.cpu.data       859895                       # number of demand (read+write) accesses
system.cpu.dcache.demand_accesses::total       859895                       # number of demand (read+write) accesses
system.cpu.dcache.overall_accesses::.cpu.data       859895                       # number of overall (read+write) accesses
system.cpu.dcache.overall_accesses::total       859895                       # number of overall (read+write) accesses
system.cpu.dcache.demand_miss_rate::.cpu.data     0.002065                       # miss rate for demand accesses
system.cpu.dcache.demand_miss_rate::total     0.002065                       # miss rate for demand accesses
system.cpu.dcache.overall_miss_rate::.cpu.data     0.002065                       # miss rate for overall accesses
system.cpu.dcache.overall_miss_rate::total     0.002065                       # miss rate for overall accesses
system.cpu.dcache.demand_avg_miss_latency::.cpu.data 94494.932432                       # average overall miss latency
system.cpu.dcache.demand_avg_miss_latency::total 94494.932432                       # average overall miss latency
system.cpu.dcache.overall_avg_miss_latency::.cpu.data 94494.932432                       # average overall miss latency
system.cpu.dcache.overall_avg_miss_latency::total 94494.932432                       # average overall miss latency
system.cpu.dcache.blocked_cycles::no_mshrs            0                       # number of cycles access was blocked
system.cpu.dcache.blocked_cycles::no_targets            0                       # number of cycles access was blocked
system.cpu.dcache.blocked::no_mshrs                 0                       # number of cycles access was blocked
system.cpu.dcache.blocked::no_targets               0                       # number of cycles access was blocked
system.cpu.dcache.avg_blocked_cycles::no_mshrs          nan                       # average number of cycles each access was blocked
system.cpu.dcache.avg_blocked_cycles::no_targets          nan                       # average number of cycles each access was blocked
system.cpu.dcache.writebacks::.writebacks            5                       # number of writebacks
system.cpu.dcache.writebacks::total                 5                       # number of writebacks
system.cpu.dcache.demand_mshr_hits::.cpu.data          590                       # number of demand (read+write) MSHR hits
system.cpu.dcache.demand_mshr_hits::total          590                       # number of demand (read+write) MSHR hits
system.cpu.dcache.overall_mshr_hits::.cpu.data          590                       # number of overall MSHR hits
system.cpu.dcache.overall_mshr_hits::total          590                       # number of overall MSHR hits
system.cpu.dcache.demand_mshr_misses::.cpu.data         1186                       # number of demand (read+write) MSHR misses
system.cpu.dcache.demand_mshr_misses::total         1186                       # number of demand (read+write) MSHR misses
system.cpu.dcache.overall_mshr_misses::.cpu.data         1186                       # number of overall MSHR misses
system.cpu.dcache.overall_mshr_misses::total         1186                       # number of overall MSHR misses
system.cpu.dcache.demand_mshr_miss_latency::.cpu.data    129530000                       # number of demand (read+write) MSHR miss cycles
system.cpu.dcache.demand_mshr_miss_latency::total    129530000                       # number of demand (read+write) MSHR miss cycles
system.cpu.dcache.overall_mshr_miss_latency::.cpu.data    129530000                       # number of overall MSHR miss cycles
system.cpu.dcache.overall_mshr_miss_latency::total    129530000                       # number of overall MSHR miss cycles
system.cpu.dcache.demand_mshr_miss_rate::.cpu.data     0.001379                       # mshr miss rate for demand accesses
system.cpu.dcache.demand_mshr_miss_rate::total     0.001379                       # mshr miss rate for demand accesses
system.cpu.dcache.overall_mshr_miss_rate::.cpu.data     0.001379                       # mshr miss rate for overall accesses
system.cpu.dcache.overall_mshr_miss_rate::total     0.001379                       # mshr miss rate for overall accesses
system.cpu.dcache.demand_avg_mshr_miss_latency::.cpu.data 109215.851602                       # average overall mshr miss latency
system.cpu.dcache.demand_avg_mshr_miss_latency::total 109215.851602                       # average overall mshr miss latency
system.cpu.dcache.overall_avg_mshr_miss_latency::.cpu.data 109215.851602                       # average overall mshr miss latency
system.cpu.dcache.overall_avg_mshr_miss_latency::total 109215.851602                       # average overall mshr miss latency
system.cpu.dcache.replacements                     20                       # number of replacements
system.cpu.dcache.ReadReq_hits::.cpu.data       530455                       # number of ReadReq hits
system.cpu.dcache.ReadReq_hits::total          530455                       # number of ReadReq hits
system.cpu.dcache.ReadReq_misses::.cpu.data          594                       # number of ReadReq misses
system.cpu.dcache.ReadReq_misses::total           594                       # number of ReadReq misses
system.cpu.dcache.ReadReq_miss_latency::.cpu.data     65725000                       # number of ReadReq miss cycles
system.cpu.dcache.ReadReq_miss_latency::total     65725000                       # number of ReadReq miss cycles
system.cpu.dcache.ReadReq_accesses::.cpu.data       531049                       # number of ReadReq accesses(hits+misses)
system.cpu.dcache.ReadReq_accesses::total       531049                       # number of ReadReq accesses(hits+misses)
system.cpu.dcache.ReadReq_miss_rate::.cpu.data     0.001119                       # miss rate for ReadReq accesses
system.cpu.dcache.ReadReq_miss_rate::total     0.001119                       # miss rate for ReadReq accesses
system.cpu.dcache.ReadReq_avg_miss_latency::.cpu.data 110648.148148                       # average ReadReq miss latency
system.cpu.dcache.ReadReq_avg_miss_latency::total 110648.148148                       # average ReadReq miss latency
system.cpu.dcache.ReadReq_mshr_hits::.cpu.data           11                       # number of ReadReq MSHR hits
system.cpu.dcache.ReadReq_mshr_hits::total           11                       # number of ReadReq MSHR hits
system.cpu.dcache.ReadReq_mshr_misses::.cpu.data          583                       # number of ReadReq MSHR misses
system.cpu.dcache.ReadReq_mshr_misses::total          583                       # number of ReadReq MSHR misses
system.cpu.dcache.ReadReq_mshr_miss_latency::.cpu.data     63448000                       # number of ReadReq MSHR miss cycles
system.cpu.dcache.ReadReq_mshr_miss_latency::total     63448000                       # number of ReadReq MSHR miss cycles
system.cpu.dcache.ReadReq_mshr_miss_rate::.cpu.data     0.001098                       # mshr miss rate for ReadReq accesses
system.cpu.dcache.ReadReq_mshr_miss_rate::total     0.001098                       # mshr miss rate for ReadReq accesses
system.cpu.dcache.ReadReq_avg_mshr_miss_latency::.cpu.data 108830.188679                       # average ReadReq mshr miss latency
system.cpu.dcache.ReadReq_avg_mshr_miss_latency::total 108830.188679                       # average ReadReq mshr miss latency
system.cpu.dcache.WriteReq_hits::.cpu.data       327664                       # number of WriteReq hits
system.cpu.dcache.WriteReq_hits::total         327664                       # number of WriteReq hits
system.cpu.dcache.WriteReq_misses::.cpu.data         1182                       # number of WriteReq misses
system.cpu.dcache.WriteReq_misses::total         1182                       # number of WriteReq misses
system.cpu.dcache.WriteReq_miss_latency::.cpu.data    102098000                       # number of WriteReq miss cycles
system.cpu.dcache.WriteReq_miss_latency::total    102098000                       # number of WriteReq miss cycles
system.cpu.dcache.WriteReq_accesses::.cpu.data       328846                       # number of WriteReq accesses(hits+misses)
system.cpu.dcache.WriteReq_accesses::total       328846                       # number of WriteReq accesses(hits+misses)
system.cpu.dcache.WriteReq_miss_rate::.cpu.data     0.003594                       # miss rate for WriteReq accesses
system.cpu.dcache.WriteReq_miss_rate::total     0.003594                       # miss rate for WriteReq accesses
system.cpu.dcache.WriteReq_avg_miss_latency::.cpu.data 86377.326565                       # average WriteReq miss latency
system.cpu.dcache.WriteReq_avg_miss_latency::total 86377.326565                       # average WriteReq miss latency
system.cpu.dcache.WriteReq_mshr_hits::.cpu.data          579                       # number of WriteReq MSHR hits
system.cpu.dcache.WriteReq_mshr_hits::total          579                       # number of WriteReq MSHR hits
system.cpu.dcache.WriteReq_mshr_misses::.cpu.data          603                       # number of WriteReq MSHR misses
system.cpu.dcache.WriteReq_mshr_misses::total          603                       # number of WriteReq MSHR misses
system.cpu.dcache.WriteReq_mshr_miss_latency::.cpu.data     66082000                       # number of WriteReq MSHR miss cycles
system.cpu.dcache.WriteReq_mshr_miss_latency::total     66082000                       # number of WriteReq MSHR miss cycles
system.cpu.dcache.WriteReq_mshr_miss_rate::.cpu.data     0.001834                       # mshr miss rate for WriteReq accesses
system.cpu.dcache.WriteReq_mshr_miss_rate::total     0.001834                       # mshr miss rate for WriteReq accesses
system.cpu.dcache.WriteReq_avg_mshr_miss_latency::.cpu.data 109588.723051                       # average WriteReq mshr miss latency
system.cpu.dcache.WriteReq_avg_mshr_miss_latency::total 109588.723051                       # average WriteReq mshr miss latency
system.cpu.dcache.tags.pwrStateResidencyTicks::UNDEFINED   6443836000                       # Cumulative time (in ticks) in various power states
system.cpu.dcache.tags.tagsinuse           709.792156                       # Cycle average of tags in use
system.cpu.dcache.tags.total_refs              859305                       # Total number of references to valid blocks.
system.cpu.dcache.tags.sampled_refs              1186                       # Sample count of references to valid blocks.
system.cpu.dcache.tags.avg_refs            724.540472                       # Average number of references to valid blocks.
system.cpu.dcache.tags.warmup_cycle            223000                       # Cycle when the warmup percentage was hit.
system.cpu.dcache.tags.occ_blocks::.cpu.data   709.792156                       # Average occupied blocks per requestor
system.cpu.dcache.tags.occ_percent::.cpu.data     0.346578                       # Average percentage of cache occupancy
system.cpu.dcache.tags.occ_percent::total     0.346578                       # Average percentage of cache occupancy
system.cpu.dcache.tags.occ_task_id_blocks::1024         1166                       # Occupied blocks per task id
system.cpu.dcache.tags.age_task_id_blocks_1024::0           17                       # Occupied blocks per task id
system.cpu.dcache.tags.age_task_id_blocks_1024::2           58                       # Occupied blocks per task id
system.cpu.dcache.tags.age_task_id_blocks_1024::3         1091                       # Occupied blocks per task id
system.cpu.dcache.tags.occ_task_id_percent::1024     0.569336                       # Percentage of cache occupancy per task id
system.cpu.dcache.tags.tag_accesses           1720976                       # Number of tag accesses
system.cpu.dcache.tags.data_accesses          1720976                       # Number of data accesses
system.cpu.itb.walker.pwrStateResidencyTicks::UNDEFINED   6443836000                       # Cumulative time (in ticks) in various power states
system.l2cache.pwrStateResidencyTicks::UNDEFINED   6443836000                       # Cumulative time (in ticks) in various power states
system.l2cache.demand_hits::.cpu.inst               1                       # number of demand (read+write) hits
system.l2cache.demand_hits::total                   1                       # number of demand (read+write) hits
system.l2cache.overall_hits::.cpu.inst              1                       # number of overall hits
system.l2cache.overall_hits::total                  1                       # number of overall hits
system.l2cache.demand_misses::.cpu.inst           389                       # number of demand (read+write) misses
system.l2cache.demand_misses::.cpu.data          1186                       # number of demand (read+write) misses
system.l2cache.demand_misses::total              1575                       # number of demand (read+write) misses
system.l2cache.overall_misses::.cpu.inst          389                       # number of overall misses
system.l2cache.overall_misses::.cpu.data         1186                       # number of overall misses
system.l2cache.overall_misses::total             1575                       # number of overall misses
system.l2cache.demand_miss_latency::.cpu.inst     37687000                       # number of demand (read+write) miss cycles
system.l2cache.demand_miss_latency::.cpu.data    125969000                       # number of demand (read+write) miss cycles
system.l2cache.demand_miss_latency::total    163656000                       # number of demand (read+write) miss cycles
system.l2cache.overall_miss_latency::.cpu.inst     37687000                       # number of overall miss cycles
system.l2cache.overall_miss_latency::.cpu.data    125969000                       # number of overall miss cycles
system.l2cache.overall_miss_latency::total    163656000                       # number of overall miss cycles
system.l2cache.demand_accesses::.cpu.inst          390                       # number of demand (read+write) accesses
system.l2cache.demand_accesses::.cpu.data         1186                       # number of demand (read+write) accesses
system.l2cache.demand_accesses::total            1576                       # number of demand (read+write) accesses
system.l2cache.overall_accesses::.cpu.inst          390                       # number of overall (read+write) accesses
system.l2cache.overall_accesses::.cpu.data         1186                       # number of overall (read+write) accesses
system.l2cache.overall_accesses::total           1576                       # number of overall (read+write) accesses
system.l2cache.demand_miss_rate::.cpu.inst     0.997436                       # miss rate for demand accesses
system.l2cache.demand_miss_rate::.cpu.data            1                       # miss rate for demand accesses
system.l2cache.demand_miss_rate::total       0.999365                       # miss rate for demand accesses
system.l2cache.overall_miss_rate::.cpu.inst     0.997436                       # miss rate for overall accesses
system.l2cache.overall_miss_rate::.cpu.data            1                       # miss rate for overall accesses
system.l2cache.overall_miss_rate::total      0.999365                       # miss rate for overall accesses
system.l2cache.demand_avg_miss_latency::.cpu.inst 96881.748072                       # average overall miss latency
system.l2cache.demand_avg_miss_latency::.cpu.data 106213.322091                       # average overall miss latency
system.l2cache.demand_avg_miss_latency::total 103908.571429                       # average overall miss latency
system.l2cache.overall_avg_miss_latency::.cpu.inst 96881.748072                       # average overall miss latency
system.l2cache.overall_avg_miss_latency::.cpu.data 106213.322091                       # average overall miss latency
system.l2cache.overall_avg_miss_latency::total 103908.571429                       # average overall miss latency
system.l2cache.blocked_cycles::no_mshrs             0                       # number of cycles access was blocked
system.l2cache.blocked_cycles::no_targets            0                       # number of cycles access was blocked
system.l2cache.blocked::no_mshrs                    0                       # number of cycles access was blocked
system.l2cache.blocked::no_targets                  0                       # number of cycles access was blocked
system.l2cache.avg_blocked_cycles::no_mshrs          nan                       # average number of cycles each access was blocked
system.l2cache.avg_blocked_cycles::no_targets          nan                       # average number of cycles each access was blocked
system.l2cache.demand_mshr_misses::.cpu.inst          389                       # number of demand (read+write) MSHR misses
system.l2cache.demand_mshr_misses::.cpu.data         1186                       # number of demand (read+write) MSHR misses
system.l2cache.demand_mshr_misses::total         1575                       # number of demand (read+write) MSHR misses
system.l2cache.overall_mshr_misses::.cpu.inst          389                       # number of overall MSHR misses
system.l2cache.overall_mshr_misses::.cpu.data         1186                       # number of overall MSHR misses
system.l2cache.overall_mshr_misses::total         1575                       # number of overall MSHR misses
system.l2cache.demand_mshr_miss_latency::.cpu.inst     29927000                       # number of demand (read+write) MSHR miss cycles
system.l2cache.demand_mshr_miss_latency::.cpu.data    102249000                       # number of demand (read+write) MSHR miss cycles
system.l2cache.demand_mshr_miss_latency::total    132176000                       # number of demand (read+write) MSHR miss cycles
system.l2cache.overall_mshr_miss_latency::.cpu.inst     29927000                       # number of overall MSHR miss cycles
system.l2cache.overall_mshr_miss_latency::.cpu.data    102249000                       # number of overall MSHR miss cycles
system.l2cache.overall_mshr_miss_latency::total    132176000                       # number of overall MSHR miss cycles
system.l2cache.demand_mshr_miss_rate::.cpu.inst     0.997436                       # mshr miss rate for demand accesses
system.l2cache.demand_mshr_miss_rate::.cpu.data            1                       # mshr miss rate for demand accesses
system.l2cache.demand_mshr_miss_rate::total     0.999365                       # mshr miss rate for demand accesses
system.l2cache.overall_mshr_miss_rate::.cpu.inst     0.997436                       # mshr miss rate for overall accesses
system.l2cache.overall_mshr_miss_rate::.cpu.data            1                       # mshr miss rate for overall accesses
system.l2cache.overall_mshr_miss_rate::total     0.999365                       # mshr miss rate for overall accesses
system.l2cache.demand_avg_mshr_miss_latency::.cpu.inst 76933.161954                       # average overall mshr miss latency
system.l2cache.demand_avg_mshr_miss_latency::.cpu.data 86213.322091                       # average overall mshr miss latency
system.l2cache.demand_avg_mshr_miss_latency::total 83921.269841                       # average overall mshr miss latency
system.l2cache.overall_avg_mshr_miss_latency::.cpu.inst 76933.161954                       # average overall mshr miss latency
system.l2cache.overall_avg_mshr_miss_latency::.cpu.data 86213.322091                       # average overall mshr miss latency
system.l2cache.overall_avg_mshr_miss_latency::total 83921.269841                       # average overall mshr miss latency
system.l2cache.replacements                         0                       # number of replacements
system.l2cache.WritebackDirty_hits::.writebacks            5                       # number of WritebackDirty hits
system.l2cache.WritebackDirty_hits::total            5                       # number of WritebackDirty hits
system.l2cache.WritebackDirty_accesses::.writebacks            5                       # number of WritebackDirty accesses(hits+misses)
system.l2cache.WritebackDirty_accesses::total            5                       # number of WritebackDirty accesses(hits+misses)
system.l2cache.ReadExReq_misses::.cpu.data          603                       # number of ReadExReq misses
system.l2cache.ReadExReq_misses::total            603                       # number of ReadExReq misses
system.l2cache.ReadExReq_miss_latency::.cpu.data     64273000                       # number of ReadExReq miss cycles
system.l2cache.ReadExReq_miss_latency::total     64273000                       # number of ReadExReq miss cycles
system.l2cache.ReadExReq_accesses::.cpu.data          603                       # number of ReadExReq accesses(hits+misses)
system.l2cache.ReadExReq_accesses::total          603                       # number of ReadExReq accesses(hits+misses)
system.l2cache.ReadExReq_miss_rate::.cpu.data            1                       # miss rate for ReadExReq accesses
system.l2cache.ReadExReq_miss_rate::total            1                       # miss rate for ReadExReq accesses
system.l2cache.ReadExReq_avg_miss_latency::.cpu.data 106588.723051                       # average ReadExReq miss latency
system.l2cache.ReadExReq_avg_miss_latency::total 106588.723051                       # average ReadExReq miss latency
system.l2cache.ReadExReq_mshr_misses::.cpu.data          603                       # number of ReadExReq MSHR misses
system.l2cache.ReadExReq_mshr_misses::total          603                       # number of ReadExReq MSHR misses
system.l2cache.ReadExReq_mshr_miss_latency::.cpu.data     52213000                       # number of ReadExReq MSHR miss cycles
system.l2cache.ReadExReq_mshr_miss_latency::total     52213000                       # number of ReadExReq MSHR miss cycles
system.l2cache.ReadExReq_mshr_miss_rate::.cpu.data            1                       # mshr miss rate for ReadExReq accesses
system.l2cache.ReadExReq_mshr_miss_rate::total            1                       # mshr miss rate for ReadExReq accesses
system.l2cache.ReadExReq_avg_mshr_miss_latency::.cpu.data 86588.723051                       # average ReadExReq mshr miss latency
system.l2cache.ReadExReq_avg_mshr_miss_latency::total 86588.723051                       # average ReadExReq mshr miss latency
system.l2cache.ReadSharedReq_hits::.cpu.inst            1                       # number of ReadSharedReq hits
system.l2cache.ReadSharedReq_hits::total            1                       # number of ReadSharedReq hits
system.l2cache.ReadSharedReq_misses::.cpu.inst          389                       # number of ReadSharedReq misses
system.l2cache.ReadSharedReq_misses::.cpu.data          583                       # number of ReadSharedReq misses
system.l2cache.ReadSharedReq_misses::total          972                       # number of ReadSharedReq misses
system.l2cache.ReadSharedReq_miss_latency::.cpu.inst     37687000                       # number of ReadSharedReq miss cycles
system.l2cache.ReadSharedReq_miss_latency::.cpu.data     61696000                       # number of ReadSharedReq miss cycles
system.l2cache.ReadSharedReq_miss_latency::total     99383000                       # number of ReadSharedReq miss cycles
system.l2cache.ReadSharedReq_accesses::.cpu.inst          390                       # number of ReadSharedReq accesses(hits+misses)
system.l2cache.ReadSharedReq_accesses::.cpu.data          583                       # number of ReadSharedReq accesses(hits+misses)
system.l2cache.ReadSharedReq_accesses::total          973                       # number of ReadSharedReq accesses(hits+misses)
system.l2cache.ReadSharedReq_miss_rate::.cpu.inst     0.997436                       # miss rate for ReadSharedReq accesses
system.l2cache.ReadSharedReq_miss_rate::.cpu.data            1                       # miss rate for ReadSharedReq accesses
system.l2cache.ReadSharedReq_miss_rate::total     0.998972                       # miss rate for ReadSharedReq accesses
system.l2cache.ReadSharedReq_avg_miss_latency::.cpu.inst 96881.748072                       # average ReadSharedReq miss latency
system.l2cache.ReadSharedReq_avg_miss_latency::.cpu.data 105825.042882                       # average ReadSharedReq miss latency
system.l2cache.ReadSharedReq_avg_miss_latency::total 102245.884774                       # average ReadSharedReq miss latency
system.l2cache.ReadSharedReq_mshr_misses::.cpu.inst          389                       # number of ReadSharedReq MSHR misses
system.l2cache.ReadSharedReq_mshr_misses::.cpu.data          583                       # number of ReadSharedReq MSHR misses
system.l2cache.ReadSharedReq_mshr_misses::total          972                       # number of ReadSharedReq MSHR misses
system.l2cache.ReadSharedReq_mshr_miss_latency::.cpu.inst     29927000                       # number of ReadSharedReq MSHR miss cycles
system.l2cache.ReadSharedReq_mshr_miss_latency::.cpu.data     50036000                       # number of ReadSharedReq MSHR miss cycles
system.l2cache.ReadSharedReq_mshr_miss_latency::total     79963000                       # number of ReadSharedReq MSHR miss cycles
system.l2cache.ReadSharedReq_mshr_miss_rate::.cpu.inst     0.997436                       # mshr miss rate for ReadSharedReq accesses
system.l2cache.ReadSharedReq_mshr_miss_rate::.cpu.data            1                       # mshr miss rate for ReadSharedReq accesses
system.l2cache.ReadSharedReq_mshr_miss_rate::total     0.998972                       # mshr miss rate for ReadSharedReq accesses
system.l2cache.ReadSharedReq_avg_mshr_miss_latency::.cpu.inst 76933.161954                       # average ReadSharedReq mshr miss latency
system.l2cache.ReadSharedReq_avg_mshr_miss_latency::.cpu.data 85825.042882                       # average ReadSharedReq mshr miss latency
system.l2cache.ReadSharedReq_avg_mshr_miss_latency::total 82266.460905                       # average ReadSharedReq mshr miss latency
system.l2cache.tags.pwrStateResidencyTicks::UNDEFINED   6443836000                       # Cumulative time (in ticks) in various power states
system.l2cache.tags.tagsinuse             1075.074881                       # Cycle average of tags in use
system.l2cache.tags.total_refs                   1594                       # Total number of references to valid blocks.
system.l2cache.tags.sampled_refs                 1574                       # Sample count of references to valid blocks.
system.l2cache.tags.avg_refs                 1.012706                       # Average number of references to valid blocks.
system.l2cache.tags.warmup_cycle                87000                       # Cycle when the warmup percentage was hit.
system.l2cache.tags.occ_blocks::.cpu.inst   361.469982                       # Average occupied blocks per requestor
system.l2cache.tags.occ_blocks::.cpu.data   713.604899                       # Average occupied blocks per requestor
system.l2cache.tags.occ_percent::.cpu.inst     0.022062                       # Average percentage of cache occupancy
system.l2cache.tags.occ_percent::.cpu.data     0.043555                       # Average percentage of cache occupancy
system.l2cache.tags.occ_percent::total       0.065617                       # Average percentage of cache occupancy
system.l2cache.tags.occ_task_id_blocks::1024         1574                       # Occupied blocks per task id
system.l2cache.tags.age_task_id_blocks_1024::0           42                       # Occupied blocks per task id
system.l2cache.tags.age_task_id_blocks_1024::2           58                       # Occupied blocks per task id
system.l2cache.tags.age_task_id_blocks_1024::3         1474                       # Occupied blocks per task id
system.l2cache.tags.occ_task_id_percent::1024     0.096069                       # Percentage of cache occupancy per task id
system.l2cache.tags.tag_accesses                14334                       # Number of tag accesses
system.l2cache.tags.data_accesses               14334                       # Number of data accesses
system.mem_ctrl.pwrStateResidencyTicks::UNDEFINED   6443836000                       # Cumulative time (in ticks) in various power states
system.mem_ctrl.bytes_read::.cpu.inst           24832                       # Number of bytes read from this memory
system.mem_ctrl.bytes_read::.cpu.data           75904                       # Number of bytes read from this memory
system.mem_ctrl.bytes_read::total              100736                       # Number of bytes read from this memory
system.mem_ctrl.bytes_inst_read::.cpu.inst        24832                       # Number of instructions bytes read from this memory
system.mem_ctrl.bytes_inst_read::total          24832                       # Number of instructions bytes read from this memory
system.mem_ctrl.num_reads::.cpu.inst              388                       # Number of read requests responded to by this memory
system.mem_ctrl.num_reads::.cpu.data             1186                       # Number of read requests responded to by this memory
system.mem_ctrl.num_reads::total                 1574                       # Number of read requests responded to by this memory
system.mem_ctrl.bw_read::.cpu.inst            3853605                       # Total read bandwidth from this memory (bytes/s)
system.mem_ctrl.bw_read::.cpu.data           11779319                       # Total read bandwidth from this memory (bytes/s)
system.mem_ctrl.bw_read::total               15632924                       # Total read bandwidth from this memory (bytes/s)
system.mem_ctrl.bw_inst_read::.cpu.inst       3853605                       # Instruction read bandwidth from this memory (bytes/s)
system.mem_ctrl.bw_inst_read::total           3853605                       # Instruction read bandwidth from this memory (bytes/s)
system.mem_ctrl.bw_total::.cpu.inst           3853605                       # Total bandwidth to/from this memory (bytes/s)
system.mem_ctrl.bw_total::.cpu.data          11779319                       # Total bandwidth to/from this memory (bytes/s)
system.mem_ctrl.bw_total::total              15632924                       # Total bandwidth to/from this memory (bytes/s)
system.mem_ctrl.avgPriority_.cpu.inst::samples       388.00                       # Average QoS priority value for accepted requests
system.mem_ctrl.avgPriority_.cpu.data::samples      1186.00                       # Average QoS priority value for accepted requests
system.mem_ctrl.priorityMinLatency       0.000000018750                       # per QoS priority minimum request to response latency (s)
system.mem_ctrl.priorityMaxLatency       0.000000565000                       # per QoS priority maximum request to response latency (s)
system.mem_ctrl.numReadWriteTurnArounds             0                       # Number of turnarounds from READ to WRITE
system.mem_ctrl.numWriteReadTurnArounds             0                       # Number of turnarounds from WRITE to READ
system.mem_ctrl.numStayReadState                 4799                       # Number of times bus staying in READ state
system.mem_ctrl.numStayWriteState                   0                       # Number of times bus staying in WRITE state
system.mem_ctrl.readReqs                         1574                       # Number of read requests accepted
system.mem_ctrl.writeReqs                           0                       # Number of write requests accepted
system.mem_ctrl.readBursts                       1574                       # Number of DRAM read bursts, including those serviced by the write queue
system.mem_ctrl.writeBursts                         0                       # Number of DRAM write bursts, including those merged in the write queue
system.mem_ctrl.servicedByWrQ                       0                       # Number of DRAM read bursts serviced by the write queue
system.mem_ctrl.mergedWrBursts                      0                       # Number of DRAM write bursts merged with an existing one
system.mem_ctrl.neitherReadNorWriteReqs             0                       # Number of requests that are neither read nor write
system.mem_ctrl.perBankRdBursts::0                189                       # Per bank write bursts
system.mem_ctrl.perBankRdBursts::1                175                       # Per bank write bursts
system.mem_ctrl.perBankRdBursts::2                153                       # Per bank write bursts
system.mem_ctrl.perBankRdBursts::3                151                       # Per bank write bursts
system.mem_ctrl.perBankRdBursts::4                 84                       # Per bank write bursts
system.mem_ctrl.perBankRdBursts::5                145                       # Per bank write bursts
system.mem_ctrl.perBankRdBursts::6                154                       # Per bank write bursts
system.mem_ctrl.perBankRdBursts::7                146                       # Per bank write bursts
system.mem_ctrl.perBankRdBursts::8                 98                       # Per bank write bursts
system.mem_ctrl.perBankRdBursts::9                 92                       # Per bank write bursts
system.mem_ctrl.perBankRdBursts::10                44                       # Per bank write bursts
system.mem_ctrl.perBankRdBursts::11                 0                       # Per bank write bursts
system.mem_ctrl.perBankRdBursts::12                 2                       # Per bank write bursts
system.mem_ctrl.perBankRdBursts::13                 0                       # Per bank write bursts
system.mem_ctrl.perBankRdBursts::14                10                       # Per bank write bursts
system.mem_ctrl.perBankRdBursts::15               131                       # Per bank write bursts
system.mem_ctrl.perBankWrBursts::0                  0                       # Per bank write bursts
system.mem_ctrl.perBankWrBursts::1                  0                       # Per bank write bursts
system.mem_ctrl.perBankWrBursts::2                  0                       # Per bank write bursts
system.mem_ctrl.perBankWrBursts::3                  0                       # Per bank write bursts
system.mem_ctrl.perBankWrBursts::4                  0                       # Per bank write bursts
system.mem_ctrl.perBankWrBursts::5                  0                       # Per bank write bursts
system.mem_ctrl.perBankWrBursts::6                  0                       # Per bank write bursts
system.mem_ctrl.perBankWrBursts::7                  0                       # Per bank write bursts
system.mem_ctrl.perBankWrBursts::8                  0                       # Per bank write bursts
system.mem_ctrl.perBankWrBursts::9                  0                       # Per bank write bursts
system.mem_ctrl.perBankWrBursts::10                 0                       # Per bank write bursts
system.mem_ctrl.perBankWrBursts::11                 0                       # Per bank write bursts
system.mem_ctrl.perBankWrBursts::12                 0                       # Per bank write bursts
system.mem_ctrl.perBankWrBursts::13                 0                       # Per bank write bursts
system.mem_ctrl.perBankWrBursts::14                 0                       # Per bank write bursts
system.mem_ctrl.perBankWrBursts::15                 0                       # Per bank write bursts
system.mem_ctrl.avgRdQLen                        1.00                       # Average read queue length when enqueuing
system.mem_ctrl.avgWrQLen                        0.00                       # Average write queue length when enqueuing
system.mem_ctrl.totQLat                      21734750                       # Total ticks spent queuing
system.mem_ctrl.totBusLat                     7870000                       # Total ticks spent in databus transfers
system.mem_ctrl.totMemAccLat                 51247250                       # Total ticks spent from burst creation until serviced by the DRAM
system.mem_ctrl.avgQLat                      13808.61                       # Average queueing delay per DRAM burst
system.mem_ctrl.avgBusLat                     5000.00                       # Average bus latency per DRAM burst
system.mem_ctrl.avgMemAccLat                 32558.61                       # Average memory access latency per DRAM burst
system.mem_ctrl.numRdRetry                          0                       # Number of times read queue was full causing retry
system.mem_ctrl.numWrRetry                          0                       # Number of times write queue was full causing retry
system.mem_ctrl.readRowHits                       558                       # Number of row buffer hits during reads
system.mem_ctrl.writeRowHits                        0                       # Number of row buffer hits during writes
system.mem_ctrl.readRowHitRate                  35.45                       # Row buffer hit rate for reads
system.mem_ctrl.writeRowHitRate                   nan                       # Row buffer hit rate for writes
system.mem_ctrl.readPktSize::0                      0                       # Read request sizes (log2)
system.mem_ctrl.readPktSize::1                      0                       # Read request sizes (log2)
system.mem_ctrl.readPktSize::2                      0                       # Read request sizes (log2)
system.mem_ctrl.readPktSize::3                      0                       # Read request sizes (log2)
system.mem_ctrl.readPktSize::4                      0                       # Read request sizes (log2)
system.mem_ctrl.readPktSize::5                      0                       # Read request sizes (log2)
system.mem_ctrl.readPktSize::6                   1574                       # Read request sizes (log2)
system.mem_ctrl.writePktSize::0                     0                       # Write request sizes (log2)
system.mem_ctrl.writePktSize::1                     0                       # Write request sizes (log2)
system.mem_ctrl.writePktSize::2                     0                       # Write request sizes (log2)
system.mem_ctrl.writePktSize::3                     0                       # Write request sizes (log2)
system.mem_ctrl.writePktSize::4                     0                       # Write request sizes (log2)
system.mem_ctrl.writePktSize::5                     0                       # Write request sizes (log2)
system.mem_ctrl.writePktSize::6                     0                       # Write request sizes (log2)
system.mem_ctrl.rdQLenPdf::0                     1515                       # What read queue length does an incoming req see
system.mem_ctrl.rdQLenPdf::1                       57                       # What read queue length does an incoming req see
system.mem_ctrl.rdQLenPdf::2                        2                       # What read queue length does an incoming req see
system.mem_ctrl.rdQLenPdf::3                        0                       # What read queue length does an incoming req see
system.mem_ctrl.rdQLenPdf::4                        0                       # What read queue length does an incoming req see
system.mem_ctrl.rdQLenPdf::5                        0                       # What read queue length does an incoming req see
system.mem_ctrl.rdQLenPdf::6                        0                       # What read queue length does an incoming req see
system.mem_ctrl.rdQLenPdf::7                        0                       # What read queue length does an incoming req see
system.mem_ctrl.rdQLenPdf::8                        0                       # What read queue length does an incoming req see
system.mem_ctrl.rdQLenPdf::9                        0                       # What read queue length does an incoming req see
system.mem_ctrl.rdQLenPdf::10                       0                       # What read queue length does an incoming req see
system.mem_ctrl.rdQLenPdf::11                       0                       # What read queue length does an incoming req see
system.mem_ctrl.rdQLenPdf::12                       0                       # What read queue length does an incoming req see
system.mem_ctrl.rdQLenPdf::13                       0                       # What read queue length does an incoming req see
system.mem_ctrl.rdQLenPdf::14                       0                       # What read queue length does an incoming req see
system.mem_ctrl.rdQLenPdf::15                       0                       # What read queue length does an incoming req see
system.mem_ctrl.rdQLenPdf::16                       0                       # What read queue length does an incoming req see
system.mem_ctrl.rdQLenPdf::17                       0                       # What read queue length does an incoming req see
system.mem_ctrl.rdQLenPdf::18                       0                       # What read queue length does an incoming req see
system.mem_ctrl.rdQLenPdf::19                       0                       # What read queue length does an incoming req see
system.mem_ctrl.rdQLenPdf::20                       0                       # What read queue length does an incoming req see
system.mem_ctrl.rdQLenPdf::21                       0                       # What read queue length does an incoming req see
system.mem_ctrl.rdQLenPdf::22                       0                       # What read queue length does an incoming req see
system.mem_ctrl.rdQLenPdf::23                       0                       # What read queue length does an incoming req see
system.mem_ctrl.rdQLenPdf::24                       0                       # What read queue length does an incoming req see
system.mem_ctrl.rdQLenPdf::25                       0                       # What read queue length does an incoming req see
system.mem_ctrl.rdQLenPdf::26                       0                       # What read queue length does an incoming req see
system.mem_ctrl.rdQLenPdf::27                       0                       # What read queue length does an incoming req see
system.mem_ctrl.rdQLenPdf::28                       0                       # What read queue length does an incoming req see
system.mem_ctrl.rdQLenPdf::29                       0                       # What read queue length does an incoming req see
system.mem_ctrl.rdQLenPdf::30                       0                       # What read queue length does an incoming req see
system.mem_ctrl.rdQLenPdf::31                       0                       # What read queue length does an incoming req see
system.mem_ctrl.wrQLenPdf::0                        0                       # What write queue length does an incoming req see
system.mem_ctrl.wrQLenPdf::1                        0                       # What write queue length does an incoming req see
system.mem_ctrl.wrQLenPdf::2                        0                       # What write queue length does an incoming req see
system.mem_ctrl.wrQLenPdf::3                        0                       # What write queue length does an incoming req see
system.mem_ctrl.wrQLenPdf::4                        0                       # What write queue length does an incoming req see
system.mem_ctrl.wrQLenPdf::5                        0                       # What write queue length does an incoming req see
system.mem_ctrl.wrQLenPdf::6                        0                       # What write queue length does an incoming req see
system.mem_ctrl.wrQLenPdf::7                        0                       # What write queue length does an incoming req see
system.mem_ctrl.wrQLenPdf::8                        0                       # What write queue length does an incoming req see
system.mem_ctrl.wrQLenPdf::9                        0                       # What write queue length does an incoming req see
system.mem_ctrl.wrQLenPdf::10                       0                       # What write queue length does an incoming req see
system.mem_ctrl.wrQLenPdf::11                       0                       # What write queue length does an incoming req see
system.mem_ctrl.wrQLenPdf::12                       0                       # What write queue length does an incoming req see
system.mem_ctrl.wrQLenPdf::13                       0                       # What write queue length does an incoming req see
system.mem_ctrl.wrQLenPdf::14                       0                       # What write queue length does an incoming req see
system.mem_ctrl.wrQLenPdf::15                       0                       # What write queue length does an incoming req see
system.mem_ctrl.wrQLenPdf::16                       0                       # What write queue length does an incoming req see
system.mem_ctrl.wrQLenPdf::17                       0                       # What write queue length does an incoming req see
system.mem_ctrl.wrQLenPdf::18                       0                       # What write queue length does an incoming req see
system.mem_ctrl.wrQLenPdf::19                       0                       # What write queue length does an incoming req see
system.mem_ctrl.wrQLenPdf::20                       0                       # What write queue length does an incoming req see
system.mem_ctrl.wrQLenPdf::21                       0                       # What write queue length does an incoming req see
system.mem_ctrl.wrQLenPdf::22                       0                       # What write queue length does an incoming req see
system.mem_ctrl.wrQLenPdf::23                       0                       # What write queue length does an incoming req see
system.mem_ctrl.wrQLenPdf::24                       0                       # What write queue length does an incoming req see
system.mem_ctrl.wrQLenPdf::25                       0                       # What write queue length does an incoming req see
system.mem_ctrl.wrQLenPdf::26                       0                       # What write queue length does an incoming req see
system.mem_ctrl.wrQLenPdf::27                       0                       # What write queue length does an incoming req see
system.mem_ctrl.wrQLenPdf::28                       0                       # What write queue length does an incoming req see
system.mem_ctrl.wrQLenPdf::29                       0                       # What write queue length does an incoming req see
system.mem_ctrl.wrQLenPdf::30                       0                       # What write queue length does an incoming req see
system.mem_ctrl.wrQLenPdf::31                       0                       # What write queue length does an incoming req see
system.mem_ctrl.wrQLenPdf::32                       0                       # What write queue length does an incoming req see
system.mem_ctrl.wrQLenPdf::33                       0                       # What write queue length does an incoming req see
system.mem_ctrl.wrQLenPdf::34                       0                       # What write queue length does an incoming req see
system.mem_ctrl.wrQLenPdf::35                       0                       # What write queue length does an incoming req see
system.mem_ctrl.wrQLenPdf::36                       0                       # What write queue length does an incoming req see
system.mem_ctrl.wrQLenPdf::37                       0                       # What write queue length does an incoming req see
system.mem_ctrl.wrQLenPdf::38                       0                       # What write queue length does an incoming req see
system.mem_ctrl.wrQLenPdf::39                       0                       # What write queue length does an incoming req see
system.mem_ctrl.wrQLenPdf::40                       0                       # What write queue length does an incoming req see
system.mem_ctrl.wrQLenPdf::41                       0                       # What write queue length does an incoming req see
system.mem_ctrl.wrQLenPdf::42                       0                       # What write queue length does an incoming req see
system.mem_ctrl.wrQLenPdf::43                       0                       # What write queue length does an incoming req see
system.mem_ctrl.wrQLenPdf::44                       0                       # What write queue length does an incoming req see
system.mem_ctrl.wrQLenPdf::45                       0                       # What write queue length does an incoming req see
system.mem_ctrl.wrQLenPdf::46                       0                       # What write queue length does an incoming req see
system.mem_ctrl.wrQLenPdf::47                       0                       # What write queue length does an incoming req see
system.mem_ctrl.wrQLenPdf::48                       0                       # What write queue length does an incoming req see
system.mem_ctrl.wrQLenPdf::49                       0                       # What write queue length does an incoming req see
system.mem_ctrl.wrQLenPdf::50                       0                       # What write queue length does an incoming req see
system.mem_ctrl.wrQLenPdf::51                       0                       # What write queue length does an incoming req see
system.mem_ctrl.wrQLenPdf::52                       0                       # What write queue length does an incoming req see
system.mem_ctrl.wrQLenPdf::53                       0                       # What write queue length does an incoming req see
system.mem_ctrl.wrQLenPdf::54                       0                       # What write queue length does an incoming req see
system.mem_ctrl.wrQLenPdf::55                       0                       # What write queue length does an incoming req see
system.mem_ctrl.wrQLenPdf::56                       0                       # What write queue length does an incoming req see
system.mem_ctrl.wrQLenPdf::57                       0                       # What write queue length does an incoming req see
system.mem_ctrl.wrQLenPdf::58                       0                       # What write queue length does an incoming req see
system.mem_ctrl.wrQLenPdf::59                       0                       # What write queue length does an incoming req see
system.mem_ctrl.wrQLenPdf::60                       0                       # What write queue length does an incoming req see
system.mem_ctrl.wrQLenPdf::61                       0                       # What write queue length does an incoming req see
system.mem_ctrl.wrQLenPdf::62                       0                       # What write queue length does an incoming req see
system.mem_ctrl.wrQLenPdf::63                       0                       # What write queue length does an incoming req see
system.mem_ctrl.bytesPerActivate::samples         1009                       # Bytes accessed per row activation
system.mem_ctrl.bytesPerActivate::mean      99.012884                       # Bytes accessed per row activation
system.mem_ctrl.bytesPerActivate::gmean     80.337313                       # Bytes accessed per row activation
system.mem_ctrl.bytesPerActivate::stdev    118.539495                       # Bytes accessed per row activation
system.mem_ctrl.bytesPerActivate::0-127           776     76.91%     76.91% # Bytes accessed per row activation
system.mem_ctrl.bytesPerActivate::128-255          189     18.73%     95.64% # Bytes accessed per row activation
system.mem_ctrl.bytesPerActivate::256-383           16      1.59%     97.22% # Bytes accessed per row activation
system.mem_ctrl.bytesPerActivate::384-511            8      0.79%     98.02% # Bytes accessed per row activation
system.mem_ctrl.bytesPerActivate::512-639            3      0.30%     98.32% # Bytes accessed per row activation
system.mem_ctrl.bytesPerActivate::640-767            4      0.40%     98.71% # Bytes accessed per row activation
system.mem_ctrl.bytesPerActivate::768-895            3      0.30%     99.01% # Bytes accessed per row activation
system.mem_ctrl.bytesPerActivate::896-1023            3      0.30%     99.31% # Bytes accessed per row activation
system.mem_ctrl.bytesPerActivate::1024-1151            7      0.69%    100.00% # Bytes accessed per row activation
system.mem_ctrl.bytesPerActivate::total          1009                       # Bytes accessed per row activation
system.mem_ctrl.bytesReadDRAM                  100736                       # Total number of bytes read from DRAM
system.mem_ctrl.bytesReadWrQ                        0                       # Total number of bytes read from write queue
system.mem_ctrl.bytesWritten                        0                       # Total number of bytes written to DRAM
system.mem_ctrl.bytesReadSys                   100736                       # Total read bytes from the system interface side
system.mem_ctrl.bytesWrittenSys                     0                       # Total written bytes from the system interface side
system.mem_ctrl.avgRdBW                         15.63                       # Average DRAM read bandwidth in MiByte/s
system.mem_ctrl.avgWrBW                          0.00                       # Average achieved write bandwidth in MiByte/s
system.mem_ctrl.avgRdBWSys                      15.63                       # Average system read bandwidth in MiByte/s
system.mem_ctrl.avgWrBWSys                       0.00                       # Average system write bandwidth in MiByte/s
system.mem_ctrl.peakBW                       12800.00                       # Theoretical peak bandwidth in MiByte/s
system.mem_ctrl.busUtil                          0.12                       # Data bus utilization in percentage
system.mem_ctrl.busUtilRead                      0.12                       # Data bus utilization in percentage for reads
system.mem_ctrl.busUtilWrite                     0.00                       # Data bus utilization in percentage for writes
system.mem_ctrl.totGap                     6443728000                       # Total gap between requests
system.mem_ctrl.avgGap                     4093855.15                       # Average gap between requests
system.mem_ctrl.masterReadBytes::.cpu.inst        24832                       # Per-master bytes read from memory
system.mem_ctrl.masterReadBytes::.cpu.data        75904                       # Per-master bytes read from memory
system.mem_ctrl.masterReadRate::.cpu.inst 3853605.212795608211                       # Per-master bytes read from memory rate (Bytes/sec)
system.mem_ctrl.masterReadRate::.cpu.data 11779319.026741214097                       # Per-master bytes read from memory rate (Bytes/sec)
system.mem_ctrl.masterReadAccesses::.cpu.inst          388                       # Per-master read serviced memory accesses
system.mem_ctrl.masterReadAccesses::.cpu.data         1186                       # Per-master read serviced memory accesses
system.mem_ctrl.masterReadTotalLat::.cpu.inst     10017000                       # Per-master read total memory access latency
system.mem_ctrl.masterReadTotalLat::.cpu.data     41230250                       # Per-master read total memory access latency
system.mem_ctrl.masterReadAvgLat::.cpu.inst     25817.01                       # Per-master read average memory access latency
system.mem_ctrl.masterReadAvgLat::.cpu.data     34764.12                       # Per-master read average memory access latency
system.mem_ctrl.pageHitRate                     35.45                       # Row buffer hit rate, read and write combined
system.mem_ctrl.rank1.actEnergy               1620780                       # Energy for activate commands per rank (pJ)
system.mem_ctrl.rank1.preEnergy                853875                       # Energy for precharge commands per rank (pJ)
system.mem_ctrl.rank1.readEnergy              2691780                       # Energy for read commands per rank (pJ)
system.mem_ctrl.rank1.writeEnergy                   0                       # Energy for write commands per rank (pJ)
system.mem_ctrl.rank1.refreshEnergy      508307280.000000                       # Energy for refresh commands per rank (pJ)
system.mem_ctrl.rank1.actBackEnergy         433656000                       # Energy for active background per rank (pJ)
system.mem_ctrl.rank1.preBackEnergy        2109249120                       # Energy for precharge background per rank (pJ)
system.mem_ctrl.rank1.actPowerDownEnergy            0                       # Energy for active power-down per rank (pJ)
system.mem_ctrl.rank1.prePowerDownEnergy            0                       # Energy for precharge power-down per rank (pJ)
system.mem_ctrl.rank1.selfRefreshEnergy             0                       # Energy for self refresh per rank (pJ)
system.mem_ctrl.rank1.totalEnergy          3056378835                       # Total energy per rank (pJ)
system.mem_ctrl.rank1.averagePower         474.310463                       # Core power per rank (mW)
system.mem_ctrl.rank1.totalIdleTime                 0                       # Total Idle time Per DRAM Rank
system.mem_ctrl.rank1.memoryStateTime::IDLE   5479010250                       # Time in different power states
system.mem_ctrl.rank1.memoryStateTime::REF    215020000                       # Time in different power states
system.mem_ctrl.rank1.memoryStateTime::SREF            0                       # Time in different power states
system.mem_ctrl.rank1.memoryStateTime::PRE_PDN            0                       # Time in different power states
system.mem_ctrl.rank1.memoryStateTime::ACT    749805750                       # Time in different power states
system.mem_ctrl.rank1.memoryStateTime::ACT_PDN            0                       # Time in different power states
system.mem_ctrl.rank0.actEnergy               5633460                       # Energy for activate commands per rank (pJ)
system.mem_ctrl.rank0.preEnergy               2975280                       # Energy for precharge commands per rank (pJ)
system.mem_ctrl.rank0.readEnergy              8546580                       # Energy for read commands per rank (pJ)
system.mem_ctrl.rank0.writeEnergy                   0                       # Energy for write commands per rank (pJ)
system.mem_ctrl.rank0.refreshEnergy      508307280.000000                       # Energy for refresh commands per rank (pJ)
system.mem_ctrl.rank0.actBackEnergy        1005972480                       # Energy for active background per rank (pJ)
system.mem_ctrl.rank0.preBackEnergy        1627298400                       # Energy for precharge background per rank (pJ)
system.mem_ctrl.rank0.actPowerDownEnergy            0                       # Energy for active power-down per rank (pJ)
system.mem_ctrl.rank0.prePowerDownEnergy            0                       # Energy for precharge power-down per rank (pJ)
system.mem_ctrl.rank0.selfRefreshEnergy             0                       # Energy for self refresh per rank (pJ)
system.mem_ctrl.rank0.totalEnergy          3158733480                       # Total energy per rank (pJ)
system.mem_ctrl.rank0.averagePower         490.194580                       # Core power per rank (mW)
system.mem_ctrl.rank0.totalIdleTime                 0                       # Total Idle time Per DRAM Rank
system.mem_ctrl.rank0.memoryStateTime::IDLE   4219984750                       # Time in different power states
system.mem_ctrl.rank0.memoryStateTime::REF    215020000                       # Time in different power states
system.mem_ctrl.rank0.memoryStateTime::SREF            0                       # Time in different power states
system.mem_ctrl.rank0.memoryStateTime::PRE_PDN            0                       # Time in different power states
system.mem_ctrl.rank0.memoryStateTime::ACT   2008831250                       # Time in different power states
system.mem_ctrl.rank0.memoryStateTime::ACT_PDN            0                       # Time in different power states

---------- End Simulation Statistics   ----------
