
---------- Begin Simulation Statistics ----------
final_tick                                29107450000                       # Number of ticks from beginning of simulation (restored from checkpoints and never reset)
host_inst_rate                                 203233                       # Simulator instruction rate (inst/s)
host_mem_usage                                 796392                       # Number of bytes of host memory used
host_op_rate                                   356854                       # Simulator op (including micro ops) rate (op/s)
host_seconds                                    88.59                       # Real time elapsed on the host
host_tick_rate                              328581159                       # Simulator tick rate (ticks/s)
sim_freq                                 1000000000000                       # Frequency of simulated ticks
sim_insts                                    18003375                       # Number of instructions simulated
sim_ops                                      31611971                       # Number of ops (including micro ops) simulated
sim_seconds                                  0.029107                       # Number of seconds simulated
sim_ticks                                 29107450000                       # Number of ticks simulated
system.cpu.branchPred.BTBCorrect                    0                       # Number of correct BTB predictions (this stat may not work properly.
system.cpu.branchPred.BTBHitPct              0.000000                       # BTB Hit Percentage
system.cpu.branchPred.BTBHits                       0                       # Number of BTB hits
system.cpu.branchPred.BTBLookups              3204707                       # Number of BTB lookups
system.cpu.branchPred.RASInCorrect                  1                       # Number of incorrect RAS predictions.
system.cpu.branchPred.condIncorrect               913                       # Number of conditional branches incorrect
system.cpu.branchPred.condPredicted           3204495                       # Number of conditional branches predicted
system.cpu.branchPred.indirectHits            3202132                       # Number of indirect target hits.
system.cpu.branchPred.indirectLookups         3204707                       # Number of indirect predictor lookups.
system.cpu.branchPred.indirectMisses             2575                       # Number of indirect misses.
system.cpu.branchPred.lookups                 3205313                       # Number of BP lookups
system.cpu.branchPred.usedRAS                     317                       # Number of times the RAS was used to get a target.
system.cpu.branchPredindirectMispredicted          495                       # Number of mispredicted indirect branches.
system.cpu.cc_regfile_reads                  26008639                       # number of cc regfile reads
system.cpu.cc_regfile_writes                 16807781                       # number of cc regfile writes
system.cpu.commit.amos                              0                       # Number of atomic instructions committed
system.cpu.commit.branchMispredicts               913                       # The number of times a branch was mispredicted
system.cpu.commit.branches                    3201003                       # Number of branches committed
system.cpu.commit.bw_lim_events               1082707                       # number cycles where commit BW limit reached
system.cpu.commit.commitNonSpecStalls               9                       # The number of times commit has been forced to stall to communicate backwards
system.cpu.commit.commitSquashedInsts           20278                       # The number of squashed insts skipped by commit
system.cpu.commit.committedInsts             18003375                       # Number of instructions committed
system.cpu.commit.committedOps               31611971                       # Number of ops (including micro ops) committed
system.cpu.commit.committed_per_cycle::samples     29091410                       # Number of insts commited each cycle
system.cpu.commit.committed_per_cycle::mean     1.086643                       # Number of insts commited each cycle
system.cpu.commit.committed_per_cycle::stdev     1.950764                       # Number of insts commited each cycle
system.cpu.commit.committed_per_cycle::underflows            0      0.00%      0.00% # Number of insts commited each cycle
system.cpu.commit.committed_per_cycle::0     19140672     65.79%     65.79% # Number of insts commited each cycle
system.cpu.commit.committed_per_cycle::1      2904206      9.98%     75.78% # Number of insts commited each cycle
system.cpu.commit.committed_per_cycle::2       774407      2.66%     78.44% # Number of insts commited each cycle
system.cpu.commit.committed_per_cycle::3      3535657     12.15%     90.59% # Number of insts commited each cycle
system.cpu.commit.committed_per_cycle::4       379998      1.31%     91.90% # Number of insts commited each cycle
system.cpu.commit.committed_per_cycle::5      1272730      4.37%     96.27% # Number of insts commited each cycle
system.cpu.commit.committed_per_cycle::6          549      0.00%     96.28% # Number of insts commited each cycle
system.cpu.commit.committed_per_cycle::7          484      0.00%     96.28% # Number of insts commited each cycle
system.cpu.commit.committed_per_cycle::8      1082707      3.72%    100.00% # Number of insts commited each cycle
system.cpu.commit.committed_per_cycle::overflows            0      0.00%    100.00% # Number of insts commited each cycle
system.cpu.commit.committed_per_cycle::min_value            0                       # Number of insts commited each cycle
system.cpu.commit.committed_per_cycle::max_value            8                       # Number of insts commited each cycle
system.cpu.commit.committed_per_cycle::total     29091410                       # Number of insts commited each cycle
system.cpu.commit.fp_insts                        288                       # Number of committed floating point instructions.
system.cpu.commit.function_calls                   92                       # Number of function calls committed.
system.cpu.commit.int_insts                  31611837                       # Number of committed integer instructions.
system.cpu.commit.loads                       1001813                       # Number of loads committed
system.cpu.commit.membars                           0                       # Number of memory barriers committed
system.cpu.commit.op_class_0::No_OpClass           39      0.00%      0.00% # Class of committed instruction
system.cpu.commit.op_class_0::IntAlu         28410086     89.87%     89.87% # Class of committed instruction
system.cpu.commit.op_class_0::IntMult            1004      0.00%     89.87% # Class of committed instruction
system.cpu.commit.op_class_0::IntDiv               21      0.00%     89.87% # Class of committed instruction
system.cpu.commit.op_class_0::FloatAdd              2      0.00%     89.87% # Class of committed instruction
system.cpu.commit.op_class_0::FloatCmp              0      0.00%     89.87% # Class of committed instruction
system.cpu.commit.op_class_0::FloatCvt              0      0.00%     89.87% # Class of committed instruction
system.cpu.commit.op_class_0::FloatMult             0      0.00%     89.87% # Class of committed instruction
system.cpu.commit.op_class_0::FloatMultAcc            0      0.00%     89.87% # Class of committed instruction
system.cpu.commit.op_class_0::FloatDiv              0      0.00%     89.87% # Class of committed instruction
system.cpu.commit.op_class_0::FloatMisc             0      0.00%     89.87% # Class of committed instruction
system.cpu.commit.op_class_0::FloatSqrt             0      0.00%     89.87% # Class of committed instruction
system.cpu.commit.op_class_0::SimdAdd               0      0.00%     89.87% # Class of committed instruction
system.cpu.commit.op_class_0::SimdAddAcc            0      0.00%     89.87% # Class of committed instruction
system.cpu.commit.op_class_0::SimdAlu              34      0.00%     89.87% # Class of committed instruction
system.cpu.commit.op_class_0::SimdCmp               0      0.00%     89.87% # Class of committed instruction
system.cpu.commit.op_class_0::SimdCvt              28      0.00%     89.87% # Class of committed instruction
system.cpu.commit.op_class_0::SimdMisc             42      0.00%     89.87% # Class of committed instruction
system.cpu.commit.op_class_0::SimdMult              0      0.00%     89.87% # Class of committed instruction
system.cpu.commit.op_class_0::SimdMultAcc            0      0.00%     89.87% # Class of committed instruction
system.cpu.commit.op_class_0::SimdShift             0      0.00%     89.87% # Class of committed instruction
system.cpu.commit.op_class_0::SimdShiftAcc            0      0.00%     89.87% # Class of committed instruction
system.cpu.commit.op_class_0::SimdDiv               0      0.00%     89.87% # Class of committed instruction
system.cpu.commit.op_class_0::SimdSqrt              0      0.00%     89.87% # Class of committed instruction
system.cpu.commit.op_class_0::SimdFloatAdd            0      0.00%     89.87% # Class of committed instruction
system.cpu.commit.op_class_0::SimdFloatAlu            0      0.00%     89.87% # Class of committed instruction
system.cpu.commit.op_class_0::SimdFloatCmp            0      0.00%     89.87% # Class of committed instruction
system.cpu.commit.op_class_0::SimdFloatCvt            0      0.00%     89.87% # Class of committed instruction
system.cpu.commit.op_class_0::SimdFloatDiv            0      0.00%     89.87% # Class of committed instruction
system.cpu.commit.op_class_0::SimdFloatMisc            0      0.00%     89.87% # Class of committed instruction
system.cpu.commit.op_class_0::SimdFloatMult            0      0.00%     89.87% # Class of committed instruction
system.cpu.commit.op_class_0::SimdFloatMultAcc            0      0.00%     89.87% # Class of committed instruction
system.cpu.commit.op_class_0::SimdFloatSqrt            0      0.00%     89.87% # Class of committed instruction
system.cpu.commit.op_class_0::SimdReduceAdd            0      0.00%     89.87% # Class of committed instruction
system.cpu.commit.op_class_0::SimdReduceAlu            0      0.00%     89.87% # Class of committed instruction
system.cpu.commit.op_class_0::SimdReduceCmp            0      0.00%     89.87% # Class of committed instruction
system.cpu.commit.op_class_0::SimdFloatReduceAdd            0      0.00%     89.87% # Class of committed instruction
system.cpu.commit.op_class_0::SimdFloatReduceCmp            0      0.00%     89.87% # Class of committed instruction
system.cpu.commit.op_class_0::SimdAes               0      0.00%     89.87% # Class of committed instruction
system.cpu.commit.op_class_0::SimdAesMix            0      0.00%     89.87% # Class of committed instruction
system.cpu.commit.op_class_0::SimdSha1Hash            0      0.00%     89.87% # Class of committed instruction
system.cpu.commit.op_class_0::SimdSha1Hash2            0      0.00%     89.87% # Class of committed instruction
system.cpu.commit.op_class_0::SimdSha256Hash            0      0.00%     89.87% # Class of committed instruction
system.cpu.commit.op_class_0::SimdSha256Hash2            0      0.00%     89.87% # Class of committed instruction
system.cpu.commit.op_class_0::SimdShaSigma2            0      0.00%     89.87% # Class of committed instruction
system.cpu.commit.op_class_0::SimdShaSigma3            0      0.00%     89.87% # Class of committed instruction
system.cpu.commit.op_class_0::SimdPredAlu            0      0.00%     89.87% # Class of committed instruction
system.cpu.commit.op_class_0::MemRead         1001789      3.17%     93.04% # Class of committed instruction
system.cpu.commit.op_class_0::MemWrite        2198750      6.96%    100.00% # Class of committed instruction
system.cpu.commit.op_class_0::FloatMemRead           24      0.00%    100.00% # Class of committed instruction
system.cpu.commit.op_class_0::FloatMemWrite          152      0.00%    100.00% # Class of committed instruction
system.cpu.commit.op_class_0::IprAccess             0      0.00%    100.00% # Class of committed instruction
system.cpu.commit.op_class_0::InstPrefetch            0      0.00%    100.00% # Class of committed instruction
system.cpu.commit.op_class_0::total          31611971                       # Class of committed instruction
system.cpu.commit.refs                        3200715                       # Number of memory references committed
system.cpu.commit.swp_count                         0                       # Number of s/w prefetches committed
system.cpu.commit.vec_insts                         0                       # Number of committed Vector instructions.
system.cpu.committedInsts                    18003375                       # Number of Instructions Simulated
system.cpu.committedOps                      31611971                       # Number of Ops (including micro ops) Simulated
system.cpu.cpi                               1.616777                       # CPI: Cycles Per Instruction
system.cpu.cpi_total                         1.616777                       # CPI: Total CPI of All Threads
system.cpu.decode.BlockedCycles              21088640                       # Number of cycles decode is blocked
system.cpu.decode.DecodedInsts               31640907                       # Number of instructions handled by decode
system.cpu.decode.IdleCycles                  2797460                       # Number of cycles decode is idle
system.cpu.decode.RunCycles                   3368956                       # Number of cycles decode is running
system.cpu.decode.SquashCycles                    917                       # Number of cycles decode is squashing
system.cpu.decode.UnblockCycles               1838686                       # Number of cycles decode is unblocking
system.cpu.dtb.rdAccesses                     1002727                       # TLB accesses on read requests
system.cpu.dtb.rdMisses                           474                       # TLB misses on read requests
system.cpu.dtb.wrAccesses                     2199625                       # TLB accesses on write requests
system.cpu.dtb.wrMisses                         40995                       # TLB misses on write requests
system.cpu.fetch.Branches                     3205313                       # Number of branches that fetch encountered
system.cpu.fetch.CacheLines                   2004760                       # Number of cache lines fetched
system.cpu.fetch.Cycles                      27079712                       # Number of cycles fetch has run and was not squashing or blocked
system.cpu.fetch.IcacheSquashes                   396                       # Number of outstanding Icache misses that were squashed
system.cpu.fetch.IcacheWaitRetryStallCycles          218                       # Number of stall cycles due to full MSHR
system.cpu.fetch.Insts                       18024652                       # Number of instructions fetch has processed
system.cpu.fetch.MiscStallCycles                    5                       # Number of cycles fetch has spent waiting on interrupts, or bad addresses, or out of MSHRs
system.cpu.fetch.PendingQuiesceStallCycles           14                       # Number of stall cycles due to pending quiesce instructions
system.cpu.fetch.PendingTrapStallCycles             3                       # Number of stall cycles due to pending traps
system.cpu.fetch.SquashCycles                    1834                       # Number of cycles fetch has spent squashing
system.cpu.fetch.branchRate                  0.110120                       # Number of branch fetches per cycle
system.cpu.fetch.icacheStallCycles            2013790                       # Number of cycles fetch is stalled on an Icache miss
system.cpu.fetch.predictedBranches            3202449                       # Number of branches that fetch has predicted taken
system.cpu.fetch.rate                        0.619245                       # Number of inst fetches per cycle
system.cpu.fetch.rateDist::samples           29094659                       # Number of instructions fetched each cycle (Total)
system.cpu.fetch.rateDist::mean              1.087890                       # Number of instructions fetched each cycle (Total)
system.cpu.fetch.rateDist::stdev             2.501110                       # Number of instructions fetched each cycle (Total)
system.cpu.fetch.rateDist::underflows               0      0.00%      0.00% # Number of instructions fetched each cycle (Total)
system.cpu.fetch.rateDist::0                 23661468     81.33%     81.33% # Number of instructions fetched each cycle (Total)
system.cpu.fetch.rateDist::1                     1568      0.01%     81.33% # Number of instructions fetched each cycle (Total)
system.cpu.fetch.rateDist::2                      222      0.00%     81.33% # Number of instructions fetched each cycle (Total)
system.cpu.fetch.rateDist::3                  2224017      7.64%     88.98% # Number of instructions fetched each cycle (Total)
system.cpu.fetch.rateDist::4                     1614      0.01%     88.98% # Number of instructions fetched each cycle (Total)
system.cpu.fetch.rateDist::5                   223906      0.77%     89.75% # Number of instructions fetched each cycle (Total)
system.cpu.fetch.rateDist::6                     1467      0.01%     89.76% # Number of instructions fetched each cycle (Total)
system.cpu.fetch.rateDist::7                      228      0.00%     89.76% # Number of instructions fetched each cycle (Total)
system.cpu.fetch.rateDist::8                  2980169     10.24%    100.00% # Number of instructions fetched each cycle (Total)
system.cpu.fetch.rateDist::overflows                0      0.00%    100.00% # Number of instructions fetched each cycle (Total)
system.cpu.fetch.rateDist::min_value                0                       # Number of instructions fetched each cycle (Total)
system.cpu.fetch.rateDist::max_value                8                       # Number of instructions fetched each cycle (Total)
system.cpu.fetch.rateDist::total             29094659                       # Number of instructions fetched each cycle (Total)
system.cpu.fp_regfile_reads                       457                       # number of floating regfile reads
system.cpu.fp_regfile_writes                      147                       # number of floating regfile writes
system.cpu.idleCycles                           12792                       # Total number of cycles that the CPU has spent unscheduled due to idling
system.cpu.iew.branchMispredicts                 1098                       # Number of branch mispredicts detected at execute
system.cpu.iew.exec_branches                  3201854                       # Number of branches executed
system.cpu.iew.exec_nop                             0                       # number of nop insts executed
system.cpu.iew.exec_rate                     1.086482                       # Inst execution rate
system.cpu.iew.exec_refs                      3202362                       # number of memory reference insts executed
system.cpu.iew.exec_stores                    2199624                       # Number of stores executed
system.cpu.iew.exec_swp                             0                       # number of swp insts executed
system.cpu.iew.iewBlockCycles                    2506                       # Number of cycles IEW is blocking
system.cpu.iew.iewDispLoadInsts               1003493                       # Number of dispatched load instructions
system.cpu.iew.iewDispNonSpecInsts                 38                       # Number of dispatched non-speculative instructions
system.cpu.iew.iewDispSquashedInsts                22                       # Number of squashed instructions skipped by dispatch
system.cpu.iew.iewDispStoreInsts              2200125                       # Number of dispatched store instructions
system.cpu.iew.iewDispatchedInsts            31631756                       # Number of instructions dispatched to IQ
system.cpu.iew.iewExecLoadInsts               1002738                       # Number of load instructions executed
system.cpu.iew.iewExecSquashedInsts              1629                       # Number of squashed instructions skipped in execute
system.cpu.iew.iewExecutedInsts              31624734                       # Number of executed instructions
system.cpu.iew.iewIQFullEvents                      3                       # Number of times the IQ has become full, causing a stall
system.cpu.iew.iewIdleCycles                        0                       # Number of cycles IEW is idle
system.cpu.iew.iewLSQFullEvents               6227007                       # Number of times the LSQ has become full, causing a stall
system.cpu.iew.iewSquashCycles                    917                       # Number of cycles IEW is squashing
system.cpu.iew.iewUnblockCycles               6226953                       # Number of cycles IEW is unblocking
system.cpu.iew.lsq.thread0.blockedLoads             0                       # Number of blocked loads due to partial load-store forwarding
system.cpu.iew.lsq.thread0.cacheBlocked             8                       # Number of times an access to memory failed due to the cache being blocked
system.cpu.iew.lsq.thread0.forwLoads               62                       # Number of loads that had data forwarded from stores
system.cpu.iew.lsq.thread0.ignoredResponses            4                       # Number of memory responses ignored because the instruction is squashed
system.cpu.iew.lsq.thread0.invAddrLoads             0                       # Number of loads ignored due to an invalid address
system.cpu.iew.lsq.thread0.invAddrSwpfs             0                       # Number of software prefetches ignored due to an invalid address
system.cpu.iew.lsq.thread0.memOrderViolation            3                       # Number of memory ordering violations
system.cpu.iew.lsq.thread0.rescheduledLoads            3                       # Number of loads that were rescheduled
system.cpu.iew.lsq.thread0.squashedLoads         1680                       # Number of loads squashed
system.cpu.iew.lsq.thread0.squashedStores         1223                       # Number of stores squashed
system.cpu.iew.memOrderViolationEvents              3                       # Number of memory order violations
system.cpu.iew.predictedNotTakenIncorrect          752                       # Number of branches that were predicted not taken incorrectly
system.cpu.iew.predictedTakenIncorrect            346                       # Number of branches that were predicted taken incorrectly
system.cpu.iew.wb_consumers                  38604606                       # num instructions consuming a value
system.cpu.iew.wb_count                      31624252                       # cumulative count of insts written-back
system.cpu.iew.wb_fanout                     0.638296                       # average fanout of values written-back
system.cpu.iew.wb_producers                  24641179                       # num instructions producing a value
system.cpu.iew.wb_rate                       1.086466                       # insts written-back per cycle
system.cpu.iew.wb_sent                       31624437                       # cumulative count of insts sent to commit
system.cpu.int_regfile_reads                 47233140                       # number of integer regfile reads
system.cpu.int_regfile_writes                26223866                       # number of integer regfile writes
system.cpu.ipc                               0.618514                       # IPC: Instructions Per Cycle
system.cpu.ipc_total                         0.618514                       # IPC: Total IPC of All Threads
system.cpu.iq.FU_type_0::No_OpClass               265      0.00%      0.00% # Type of FU issued
system.cpu.iq.FU_type_0::IntAlu              28421918     89.87%     89.87% # Type of FU issued
system.cpu.iq.FU_type_0::IntMult                 1275      0.00%     89.87% # Type of FU issued
system.cpu.iq.FU_type_0::IntDiv                    22      0.00%     89.87% # Type of FU issued
system.cpu.iq.FU_type_0::FloatAdd                   2      0.00%     89.87% # Type of FU issued
system.cpu.iq.FU_type_0::FloatCmp                   0      0.00%     89.87% # Type of FU issued
system.cpu.iq.FU_type_0::FloatCvt                   0      0.00%     89.87% # Type of FU issued
system.cpu.iq.FU_type_0::FloatMult                  0      0.00%     89.87% # Type of FU issued
system.cpu.iq.FU_type_0::FloatMultAcc               0      0.00%     89.87% # Type of FU issued
system.cpu.iq.FU_type_0::FloatDiv                   0      0.00%     89.87% # Type of FU issued
system.cpu.iq.FU_type_0::FloatMisc                  0      0.00%     89.87% # Type of FU issued
system.cpu.iq.FU_type_0::FloatSqrt                  0      0.00%     89.87% # Type of FU issued
system.cpu.iq.FU_type_0::SimdAdd                    0      0.00%     89.87% # Type of FU issued
system.cpu.iq.FU_type_0::SimdAddAcc                 0      0.00%     89.87% # Type of FU issued
system.cpu.iq.FU_type_0::SimdAlu                   51      0.00%     89.87% # Type of FU issued
system.cpu.iq.FU_type_0::SimdCmp                    0      0.00%     89.87% # Type of FU issued
system.cpu.iq.FU_type_0::SimdCvt                   42      0.00%     89.87% # Type of FU issued
system.cpu.iq.FU_type_0::SimdMisc                  56      0.00%     89.87% # Type of FU issued
system.cpu.iq.FU_type_0::SimdMult                   0      0.00%     89.87% # Type of FU issued
system.cpu.iq.FU_type_0::SimdMultAcc                0      0.00%     89.87% # Type of FU issued
system.cpu.iq.FU_type_0::SimdShift                  0      0.00%     89.87% # Type of FU issued
system.cpu.iq.FU_type_0::SimdShiftAcc               0      0.00%     89.87% # Type of FU issued
system.cpu.iq.FU_type_0::SimdDiv                    0      0.00%     89.87% # Type of FU issued
system.cpu.iq.FU_type_0::SimdSqrt                   0      0.00%     89.87% # Type of FU issued
system.cpu.iq.FU_type_0::SimdFloatAdd               0      0.00%     89.87% # Type of FU issued
system.cpu.iq.FU_type_0::SimdFloatAlu               0      0.00%     89.87% # Type of FU issued
system.cpu.iq.FU_type_0::SimdFloatCmp               0      0.00%     89.87% # Type of FU issued
system.cpu.iq.FU_type_0::SimdFloatCvt               0      0.00%     89.87% # Type of FU issued
system.cpu.iq.FU_type_0::SimdFloatDiv               0      0.00%     89.87% # Type of FU issued
system.cpu.iq.FU_type_0::SimdFloatMisc              0      0.00%     89.87% # Type of FU issued
system.cpu.iq.FU_type_0::SimdFloatMult              0      0.00%     89.87% # Type of FU issued
system.cpu.iq.FU_type_0::SimdFloatMultAcc            0      0.00%     89.87% # Type of FU issued
system.cpu.iq.FU_type_0::SimdFloatSqrt              0      0.00%     89.87% # Type of FU issued
system.cpu.iq.FU_type_0::SimdReduceAdd              0      0.00%     89.87% # Type of FU issued
system.cpu.iq.FU_type_0::SimdReduceAlu              0      0.00%     89.87% # Type of FU issued
system.cpu.iq.FU_type_0::SimdReduceCmp              0      0.00%     89.87% # Type of FU issued
system.cpu.iq.FU_type_0::SimdFloatReduceAdd            0      0.00%     89.87% # Type of FU issued
system.cpu.iq.FU_type_0::SimdFloatReduceCmp            0      0.00%     89.87% # Type of FU issued
system.cpu.iq.FU_type_0::SimdAes                    0      0.00%     89.87% # Type of FU issued
system.cpu.iq.FU_type_0::SimdAesMix                 0      0.00%     89.87% # Type of FU issued
system.cpu.iq.FU_type_0::SimdSha1Hash               0      0.00%     89.87% # Type of FU issued
system.cpu.iq.FU_type_0::SimdSha1Hash2              0      0.00%     89.87% # Type of FU issued
system.cpu.iq.FU_type_0::SimdSha256Hash             0      0.00%     89.87% # Type of FU issued
system.cpu.iq.FU_type_0::SimdSha256Hash2            0      0.00%     89.87% # Type of FU issued
system.cpu.iq.FU_type_0::SimdShaSigma2              0      0.00%     89.87% # Type of FU issued
system.cpu.iq.FU_type_0::SimdShaSigma3              0      0.00%     89.87% # Type of FU issued
system.cpu.iq.FU_type_0::SimdPredAlu                0      0.00%     89.87% # Type of FU issued
system.cpu.iq.FU_type_0::MemRead              1002939      3.17%     93.04% # Type of FU issued
system.cpu.iq.FU_type_0::MemWrite             2199592      6.95%    100.00% # Type of FU issued
system.cpu.iq.FU_type_0::FloatMemRead              48      0.00%    100.00% # Type of FU issued
system.cpu.iq.FU_type_0::FloatMemWrite            153      0.00%    100.00% # Type of FU issued
system.cpu.iq.FU_type_0::IprAccess                  0      0.00%    100.00% # Type of FU issued
system.cpu.iq.FU_type_0::InstPrefetch               0      0.00%    100.00% # Type of FU issued
system.cpu.iq.FU_type_0::total               31626363                       # Type of FU issued
system.cpu.iq.fp_alu_accesses                     373                       # Number of floating point alu accesses
system.cpu.iq.fp_inst_queue_reads                 740                       # Number of floating instruction queue reads
system.cpu.iq.fp_inst_queue_wakeup_accesses          342                       # Number of floating instruction queue wakeup accesses
system.cpu.iq.fp_inst_queue_writes                556                       # Number of floating instruction queue writes
system.cpu.iq.fu_busy_cnt                       12425                       # FU busy when requested
system.cpu.iq.fu_busy_rate                   0.000393                       # FU busy rate (busy events/executed inst)
system.cpu.iq.fu_full::No_OpClass                   0      0.00%      0.00% # attempts to use FU when none available
system.cpu.iq.fu_full::IntAlu                   12407     99.86%     99.86% # attempts to use FU when none available
system.cpu.iq.fu_full::IntMult                      0      0.00%     99.86% # attempts to use FU when none available
system.cpu.iq.fu_full::IntDiv                       0      0.00%     99.86% # attempts to use FU when none available
system.cpu.iq.fu_full::FloatAdd                     0      0.00%     99.86% # attempts to use FU when none available
system.cpu.iq.fu_full::FloatCmp                     0      0.00%     99.86% # attempts to use FU when none available
system.cpu.iq.fu_full::FloatCvt                     0      0.00%     99.86% # attempts to use FU when none available
system.cpu.iq.fu_full::FloatMult                    0      0.00%     99.86% # attempts to use FU when none available
system.cpu.iq.fu_full::FloatMultAcc                 0      0.00%     99.86% # attempts to use FU when none available
system.cpu.iq.fu_full::FloatDiv                     0      0.00%     99.86% # attempts to use FU when none available
system.cpu.iq.fu_full::FloatMisc                    0      0.00%     99.86% # attempts to use FU when none available
system.cpu.iq.fu_full::FloatSqrt                    0      0.00%     99.86% # attempts to use FU when none available
system.cpu.iq.fu_full::SimdAdd                      0      0.00%     99.86% # attempts to use FU when none available
system.cpu.iq.fu_full::SimdAddAcc                   0      0.00%     99.86% # attempts to use FU when none available
system.cpu.iq.fu_full::SimdAlu                      4      0.03%     99.89% # attempts to use FU when none available
system.cpu.iq.fu_full::SimdCmp                      0      0.00%     99.89% # attempts to use FU when none available
system.cpu.iq.fu_full::SimdCvt                      2      0.02%     99.90% # attempts to use FU when none available
system.cpu.iq.fu_full::SimdMisc                     0      0.00%     99.90% # attempts to use FU when none available
system.cpu.iq.fu_full::SimdMult                     0      0.00%     99.90% # attempts to use FU when none available
system.cpu.iq.fu_full::SimdMultAcc                  0      0.00%     99.90% # attempts to use FU when none available
system.cpu.iq.fu_full::SimdShift                    0      0.00%     99.90% # attempts to use FU when none available
system.cpu.iq.fu_full::SimdShiftAcc                 0      0.00%     99.90% # attempts to use FU when none available
system.cpu.iq.fu_full::SimdDiv                      0      0.00%     99.90% # attempts to use FU when none available
system.cpu.iq.fu_full::SimdSqrt                     0      0.00%     99.90% # attempts to use FU when none available
system.cpu.iq.fu_full::SimdFloatAdd                 0      0.00%     99.90% # attempts to use FU when none available
system.cpu.iq.fu_full::SimdFloatAlu                 0      0.00%     99.90% # attempts to use FU when none available
system.cpu.iq.fu_full::SimdFloatCmp                 0      0.00%     99.90% # attempts to use FU when none available
system.cpu.iq.fu_full::SimdFloatCvt                 0      0.00%     99.90% # attempts to use FU when none available
system.cpu.iq.fu_full::SimdFloatDiv                 0      0.00%     99.90% # attempts to use FU when none available
system.cpu.iq.fu_full::SimdFloatMisc                0      0.00%     99.90% # attempts to use FU when none available
system.cpu.iq.fu_full::SimdFloatMult                0      0.00%     99.90% # attempts to use FU when none available
system.cpu.iq.fu_full::SimdFloatMultAcc             0      0.00%     99.90% # attempts to use FU when none available
system.cpu.iq.fu_full::SimdFloatSqrt                0      0.00%     99.90% # attempts to use FU when none available
system.cpu.iq.fu_full::SimdReduceAdd                0      0.00%     99.90% # attempts to use FU when none available
system.cpu.iq.fu_full::SimdReduceAlu                0      0.00%     99.90% # attempts to use FU when none available
system.cpu.iq.fu_full::SimdReduceCmp                0      0.00%     99.90% # attempts to use FU when none available
system.cpu.iq.fu_full::SimdFloatReduceAdd            0      0.00%     99.90% # attempts to use FU when none available
system.cpu.iq.fu_full::SimdFloatReduceCmp            0      0.00%     99.90% # attempts to use FU when none available
system.cpu.iq.fu_full::SimdAes                      0      0.00%     99.90% # attempts to use FU when none available
system.cpu.iq.fu_full::SimdAesMix                   0      0.00%     99.90% # attempts to use FU when none available
system.cpu.iq.fu_full::SimdSha1Hash                 0      0.00%     99.90% # attempts to use FU when none available
system.cpu.iq.fu_full::SimdSha1Hash2                0      0.00%     99.90% # attempts to use FU when none available
system.cpu.iq.fu_full::SimdSha256Hash               0      0.00%     99.90% # attempts to use FU when none available
system.cpu.iq.fu_full::SimdSha256Hash2              0      0.00%     99.90% # attempts to use FU when none available
system.cpu.iq.fu_full::SimdShaSigma2                0      0.00%     99.90% # attempts to use FU when none available
system.cpu.iq.fu_full::SimdShaSigma3                0      0.00%     99.90% # attempts to use FU when none available
system.cpu.iq.fu_full::SimdPredAlu                  0      0.00%     99.90% # attempts to use FU when none available
system.cpu.iq.fu_full::MemRead                      7      0.06%     99.96% # attempts to use FU when none available
system.cpu.iq.fu_full::MemWrite                     0      0.00%     99.96% # attempts to use FU when none available
system.cpu.iq.fu_full::FloatMemRead                 1      0.01%     99.97% # attempts to use FU when none available
system.cpu.iq.fu_full::FloatMemWrite                4      0.03%    100.00% # attempts to use FU when none available
system.cpu.iq.fu_full::IprAccess                    0      0.00%    100.00% # attempts to use FU when none available
system.cpu.iq.fu_full::InstPrefetch                 0      0.00%    100.00% # attempts to use FU when none available
system.cpu.iq.int_alu_accesses               31638150                       # Number of integer alu accesses
system.cpu.iq.int_inst_queue_reads           92359225                       # Number of integer instruction queue reads
system.cpu.iq.int_inst_queue_wakeup_accesses     31623910                       # Number of integer instruction queue wakeup accesses
system.cpu.iq.int_inst_queue_writes          31650987                       # Number of integer instruction queue writes
system.cpu.iq.iqInstsAdded                   31631673                       # Number of instructions added to the IQ (excludes non-spec)
system.cpu.iq.iqInstsIssued                  31626363                       # Number of instructions issued
system.cpu.iq.iqNonSpecInstsAdded                  83                       # Number of non-speculative instructions added to the IQ
system.cpu.iq.iqSquashedInstsExamined           19784                       # Number of squashed instructions iterated over during squash; mainly for profiling
system.cpu.iq.iqSquashedInstsIssued               155                       # Number of squashed instructions issued
system.cpu.iq.iqSquashedNonSpecRemoved             74                       # Number of squashed non-spec instructions that were removed
system.cpu.iq.iqSquashedOperandsExamined        22326                       # Number of squashed operands that are examined and possibly removed from graph
system.cpu.iq.issued_per_cycle::samples      29094659                       # Number of insts issued each cycle
system.cpu.iq.issued_per_cycle::mean         1.087016                       # Number of insts issued each cycle
system.cpu.iq.issued_per_cycle::stdev        1.764520                       # Number of insts issued each cycle
system.cpu.iq.issued_per_cycle::underflows            0      0.00%      0.00% # Number of insts issued each cycle
system.cpu.iq.issued_per_cycle::0            18877149     64.88%     64.88% # Number of insts issued each cycle
system.cpu.iq.issued_per_cycle::1             2383967      8.19%     73.08% # Number of insts issued each cycle
system.cpu.iq.issued_per_cycle::2             1901091      6.53%     79.61% # Number of insts issued each cycle
system.cpu.iq.issued_per_cycle::3             1453916      5.00%     84.61% # Number of insts issued each cycle
system.cpu.iq.issued_per_cycle::4             2134277      7.34%     91.94% # Number of insts issued each cycle
system.cpu.iq.issued_per_cycle::5             1582082      5.44%     97.38% # Number of insts issued each cycle
system.cpu.iq.issued_per_cycle::6              704564      2.42%     99.80% # Number of insts issued each cycle
system.cpu.iq.issued_per_cycle::7               57340      0.20%    100.00% # Number of insts issued each cycle
system.cpu.iq.issued_per_cycle::8                 273      0.00%    100.00% # Number of insts issued each cycle
system.cpu.iq.issued_per_cycle::overflows            0      0.00%    100.00% # Number of insts issued each cycle
system.cpu.iq.issued_per_cycle::min_value            0                       # Number of insts issued each cycle
system.cpu.iq.issued_per_cycle::max_value            8                       # Number of insts issued each cycle
system.cpu.iq.issued_per_cycle::total        29094659                       # Number of insts issued each cycle
system.cpu.iq.rate                           1.086538                       # Inst issue rate
system.cpu.iq.vec_alu_accesses                      0                       # Number of vector alu accesses
system.cpu.iq.vec_inst_queue_reads                  0                       # Number of vector instruction queue reads
system.cpu.iq.vec_inst_queue_wakeup_accesses            0                       # Number of vector instruction queue wakeup accesses
system.cpu.iq.vec_inst_queue_writes                 0                       # Number of vector instruction queue writes
system.cpu.itb.rdAccesses                           0                       # TLB accesses on read requests
system.cpu.itb.rdMisses                             0                       # TLB misses on read requests
system.cpu.itb.wrAccesses                     2004764                       # TLB accesses on write requests
system.cpu.itb.wrMisses                            33                       # TLB misses on write requests
system.cpu.memDep0.conflictingLoads                46                       # Number of conflicting loads.
system.cpu.memDep0.conflictingStores               38                       # Number of conflicting stores.
system.cpu.memDep0.insertedLoads              1003493                       # Number of loads inserted to the mem dependence unit.
system.cpu.memDep0.insertedStores             2200125                       # Number of stores inserted to the mem dependence unit.
system.cpu.misc_regfile_reads                 9607525                       # number of misc regfile reads
system.cpu.misc_regfile_writes                      1                       # number of misc regfile writes
system.cpu.numCycles                         29107451                       # number of cpu cycles simulated
system.cpu.numWorkItemsCompleted                    0                       # number of work items this cpu completed
system.cpu.numWorkItemsStarted                      0                       # number of work items this cpu started
system.cpu.rename.BlockCycles                 6229603                       # Number of cycles rename is blocking
system.cpu.rename.CommittedMaps              43016849                       # Number of HB maps that are committed
system.cpu.rename.IQFullEvents                     29                       # Number of times rename has blocked due to IQ full
system.cpu.rename.IdleCycles                  3214092                       # Number of cycles rename is idle
system.cpu.rename.ROBFullEvents                    16                       # Number of times rename has blocked due to ROB full
system.cpu.rename.RenameLookups              82885121                       # Number of register rename lookups that rename has made
system.cpu.rename.RenamedInsts               31637640                       # Number of instructions processed by rename
system.cpu.rename.RenamedOperands            43047684                       # Number of destination operands rename has renamed
system.cpu.rename.RunCycles                   4790911                       # Number of cycles rename is running
system.cpu.rename.SQFullEvents               14442198                       # Number of times rename has blocked due to SQ full
system.cpu.rename.SquashCycles                    917                       # Number of cycles rename is squashing
system.cpu.rename.UnblockCycles              14858399                       # Number of cycles rename is unblocking
system.cpu.rename.UndoneMaps                    30835                       # Number of HB maps that are undone due to squashing
system.cpu.rename.fp_rename_lookups               625                       # Number of floating rename lookups
system.cpu.rename.int_rename_lookups         47254394                       # Number of integer rename lookups
system.cpu.rename.serializeStallCycles            737                       # count of cycles rename stalled for serializing inst
system.cpu.rename.serializingInsts                 23                       # count of serializing insts renamed
system.cpu.rename.skidInsts                   8624962                       # count of insts added to the skid buffer
system.cpu.rename.tempSerializingInsts             16                       # count of temporary serializing insts renamed
system.cpu.rob.rob_reads                     59640952                       # The number of ROB reads
system.cpu.rob.rob_writes                    63267790                       # The number of ROB writes
system.cpu.timesIdled                             185                       # Number of times that the entire CPU went into an idle state and unscheduled itself
system.cpu.workload.numSyscalls                     8                       # Number of system calls
system.l2bus.snoop_filter.hit_multi_requests            2                       # Number of requests hitting in the snoop filter with multiple (>1) holders of the requested data.
system.l2bus.snoop_filter.hit_multi_snoops            0                       # Number of snoops hitting in the snoop filter with multiple (>1) holders of the requested data.
system.l2bus.snoop_filter.hit_single_requests       763234                       # Number of requests hitting in the snoop filter with a single holder of the requested data.
system.l2bus.snoop_filter.hit_single_snoops          211                       # Number of snoops hitting in the snoop filter with a single holder of the requested data.
system.l2bus.snoop_filter.tot_requests        1528843                       # Total number of requests made to the snoop filter.
system.l2bus.snoop_filter.tot_snoops              211                       # Total number of snoops made to the snoop filter.
system.membus.snoop_filter.hit_multi_requests            0                       # Number of requests hitting in the snoop filter with multiple (>1) holders of the requested data.
system.membus.snoop_filter.hit_multi_snoops            0                       # Number of snoops hitting in the snoop filter with multiple (>1) holders of the requested data.
system.membus.snoop_filter.hit_single_requests           37                       # Number of requests hitting in the snoop filter with a single holder of the requested data.
system.membus.snoop_filter.hit_single_snoops            0                       # Number of snoops hitting in the snoop filter with a single holder of the requested data.
system.membus.snoop_filter.tot_requests         16156                       # Total number of requests made to the snoop filter.
system.membus.snoop_filter.tot_snoops               0                       # Total number of snoops made to the snoop filter.
system.membus.pwrStateResidencyTicks::UNDEFINED  29107450000                       # Cumulative time (in ticks) in various power states
system.membus.trans_dist::ReadResp                401                       # Transaction distribution
system.membus.trans_dist::WritebackDirty           23                       # Transaction distribution
system.membus.trans_dist::CleanEvict               14                       # Transaction distribution
system.membus.trans_dist::ReadExReq             15717                       # Transaction distribution
system.membus.trans_dist::ReadExResp            15717                       # Transaction distribution
system.membus.trans_dist::ReadSharedReq           402                       # Transaction distribution
system.membus.pkt_count_system.l2cache.mem_side::system.mem_ctrl.port        32274                       # Packet count per connected master and slave (bytes)
system.membus.pkt_count_system.l2cache.mem_side::total        32274                       # Packet count per connected master and slave (bytes)
system.membus.pkt_count::total                  32274                       # Packet count per connected master and slave (bytes)
system.membus.pkt_size_system.l2cache.mem_side::system.mem_ctrl.port      1033024                       # Cumulative packet size per connected master and slave (bytes)
system.membus.pkt_size_system.l2cache.mem_side::total      1033024                       # Cumulative packet size per connected master and slave (bytes)
system.membus.pkt_size::total                 1033024                       # Cumulative packet size per connected master and slave (bytes)
system.membus.snoops                                0                       # Total snoops (count)
system.membus.snoopTraffic                          0                       # Total snoop traffic (bytes)
system.membus.snoop_fanout::samples             16119                       # Request fanout histogram
system.membus.snoop_fanout::mean                    0                       # Request fanout histogram
system.membus.snoop_fanout::stdev                   0                       # Request fanout histogram
system.membus.snoop_fanout::underflows              0      0.00%      0.00% # Request fanout histogram
system.membus.snoop_fanout::0                   16119    100.00%    100.00% # Request fanout histogram
system.membus.snoop_fanout::1                       0      0.00%    100.00% # Request fanout histogram
system.membus.snoop_fanout::overflows               0      0.00%    100.00% # Request fanout histogram
system.membus.snoop_fanout::min_value               0                       # Request fanout histogram
system.membus.snoop_fanout::max_value               0                       # Request fanout histogram
system.membus.snoop_fanout::total               16119                       # Request fanout histogram
system.membus.reqLayer2.occupancy            16248000                       # Layer occupancy (ticks)
system.membus.reqLayer2.utilization               0.1                       # Layer utilization (%)
system.membus.respLayer0.occupancy           84873500                       # Layer occupancy (ticks)
system.membus.respLayer0.utilization              0.3                       # Layer utilization (%)
system.l2bus.pwrStateResidencyTicks::UNDEFINED  29107450000                       # Cumulative time (in ticks) in various power states
system.l2bus.trans_dist::ReadResp               15997                       # Transaction distribution
system.l2bus.trans_dist::WritebackDirty        763220                       # Transaction distribution
system.l2bus.trans_dist::CleanEvict               262                       # Transaction distribution
system.l2bus.trans_dist::ReadExReq             749610                       # Transaction distribution
system.l2bus.trans_dist::ReadExResp            749610                       # Transaction distribution
system.l2bus.trans_dist::ReadSharedReq          15999                       # Transaction distribution
system.l2bus.pkt_count_system.cpu.icache.mem_side::system.l2cache.cpu_side          651                       # Packet count per connected master and slave (bytes)
system.l2bus.pkt_count_system.cpu.dcache.mem_side::system.l2cache.cpu_side      2293799                       # Packet count per connected master and slave (bytes)
system.l2bus.pkt_count::total                 2294450                       # Packet count per connected master and slave (bytes)
system.l2bus.pkt_size_system.cpu.icache.mem_side::system.l2cache.cpu_side        20800                       # Cumulative packet size per connected master and slave (bytes)
system.l2bus.pkt_size_system.cpu.dcache.mem_side::system.l2cache.cpu_side     97822656                       # Cumulative packet size per connected master and slave (bytes)
system.l2bus.pkt_size::total                 97843456                       # Cumulative packet size per connected master and slave (bytes)
system.l2bus.snoops                               248                       # Total snoops (count)
system.l2bus.snoopTraffic                        1472                       # Total snoop traffic (bytes)
system.l2bus.snoop_fanout::samples             765857                       # Request fanout histogram
system.l2bus.snoop_fanout::mean              0.000278                       # Request fanout histogram
system.l2bus.snoop_fanout::stdev             0.016675                       # Request fanout histogram
system.l2bus.snoop_fanout::underflows               0      0.00%      0.00% # Request fanout histogram
system.l2bus.snoop_fanout::0                   765644     99.97%     99.97% # Request fanout histogram
system.l2bus.snoop_fanout::1                      213      0.03%    100.00% # Request fanout histogram
system.l2bus.snoop_fanout::2                        0      0.00%    100.00% # Request fanout histogram
system.l2bus.snoop_fanout::overflows                0      0.00%    100.00% # Request fanout histogram
system.l2bus.snoop_fanout::min_value                0                       # Request fanout histogram
system.l2bus.snoop_fanout::max_value                1                       # Request fanout histogram
system.l2bus.snoop_fanout::total               765857                       # Request fanout histogram
system.l2bus.respLayer1.occupancy          2295846000                       # Layer occupancy (ticks)
system.l2bus.respLayer1.utilization               7.9                       # Layer utilization (%)
system.l2bus.reqLayer0.occupancy           3055237000                       # Layer occupancy (ticks)
system.l2bus.reqLayer0.utilization               10.5                       # Layer utilization (%)
system.l2bus.respLayer0.occupancy              975000                       # Layer occupancy (ticks)
system.l2bus.respLayer0.utilization               0.0                       # Layer utilization (%)
system.clk_domain.clock                          1000                       # Clock period in ticks
system.clk_domain.voltage_domain.voltage            1                       # Voltage in Volts
system.cpu.pwrStateResidencyTicks::ON     29107450000                       # Cumulative time (in ticks) in various power states
system.cpu.icache.pwrStateResidencyTicks::UNDEFINED  29107450000                       # Cumulative time (in ticks) in various power states
system.cpu.icache.demand_hits::.cpu.inst      2004320                       # number of demand (read+write) hits
system.cpu.icache.demand_hits::total          2004320                       # number of demand (read+write) hits
system.cpu.icache.overall_hits::.cpu.inst      2004320                       # number of overall hits
system.cpu.icache.overall_hits::total         2004320                       # number of overall hits
system.cpu.icache.demand_misses::.cpu.inst          440                       # number of demand (read+write) misses
system.cpu.icache.demand_misses::total            440                       # number of demand (read+write) misses
system.cpu.icache.overall_misses::.cpu.inst          440                       # number of overall misses
system.cpu.icache.overall_misses::total           440                       # number of overall misses
system.cpu.icache.demand_miss_latency::.cpu.inst     43417999                       # number of demand (read+write) miss cycles
system.cpu.icache.demand_miss_latency::total     43417999                       # number of demand (read+write) miss cycles
system.cpu.icache.overall_miss_latency::.cpu.inst     43417999                       # number of overall miss cycles
system.cpu.icache.overall_miss_latency::total     43417999                       # number of overall miss cycles
system.cpu.icache.demand_accesses::.cpu.inst      2004760                       # number of demand (read+write) accesses
system.cpu.icache.demand_accesses::total      2004760                       # number of demand (read+write) accesses
system.cpu.icache.overall_accesses::.cpu.inst      2004760                       # number of overall (read+write) accesses
system.cpu.icache.overall_accesses::total      2004760                       # number of overall (read+write) accesses
system.cpu.icache.demand_miss_rate::.cpu.inst     0.000219                       # miss rate for demand accesses
system.cpu.icache.demand_miss_rate::total     0.000219                       # miss rate for demand accesses
system.cpu.icache.overall_miss_rate::.cpu.inst     0.000219                       # miss rate for overall accesses
system.cpu.icache.overall_miss_rate::total     0.000219                       # miss rate for overall accesses
system.cpu.icache.demand_avg_miss_latency::.cpu.inst 98677.270455                       # average overall miss latency
system.cpu.icache.demand_avg_miss_latency::total 98677.270455                       # average overall miss latency
system.cpu.icache.overall_avg_miss_latency::.cpu.inst 98677.270455                       # average overall miss latency
system.cpu.icache.overall_avg_miss_latency::total 98677.270455                       # average overall miss latency
system.cpu.icache.blocked_cycles::no_mshrs          337                       # number of cycles access was blocked
system.cpu.icache.blocked_cycles::no_targets            0                       # number of cycles access was blocked
system.cpu.icache.blocked::no_mshrs                 4                       # number of cycles access was blocked
system.cpu.icache.blocked::no_targets               0                       # number of cycles access was blocked
system.cpu.icache.avg_blocked_cycles::no_mshrs    84.250000                       # average number of cycles each access was blocked
system.cpu.icache.avg_blocked_cycles::no_targets          nan                       # average number of cycles each access was blocked
system.cpu.icache.demand_mshr_hits::.cpu.inst          114                       # number of demand (read+write) MSHR hits
system.cpu.icache.demand_mshr_hits::total          114                       # number of demand (read+write) MSHR hits
system.cpu.icache.overall_mshr_hits::.cpu.inst          114                       # number of overall MSHR hits
system.cpu.icache.overall_mshr_hits::total          114                       # number of overall MSHR hits
system.cpu.icache.demand_mshr_misses::.cpu.inst          326                       # number of demand (read+write) MSHR misses
system.cpu.icache.demand_mshr_misses::total          326                       # number of demand (read+write) MSHR misses
system.cpu.icache.overall_mshr_misses::.cpu.inst          326                       # number of overall MSHR misses
system.cpu.icache.overall_mshr_misses::total          326                       # number of overall MSHR misses
system.cpu.icache.demand_mshr_miss_latency::.cpu.inst     34346999                       # number of demand (read+write) MSHR miss cycles
system.cpu.icache.demand_mshr_miss_latency::total     34346999                       # number of demand (read+write) MSHR miss cycles
system.cpu.icache.overall_mshr_miss_latency::.cpu.inst     34346999                       # number of overall MSHR miss cycles
system.cpu.icache.overall_mshr_miss_latency::total     34346999                       # number of overall MSHR miss cycles
system.cpu.icache.demand_mshr_miss_rate::.cpu.inst     0.000163                       # mshr miss rate for demand accesses
system.cpu.icache.demand_mshr_miss_rate::total     0.000163                       # mshr miss rate for demand accesses
system.cpu.icache.overall_mshr_miss_rate::.cpu.inst     0.000163                       # mshr miss rate for overall accesses
system.cpu.icache.overall_mshr_miss_rate::total     0.000163                       # mshr miss rate for overall accesses
system.cpu.icache.demand_avg_mshr_miss_latency::.cpu.inst 105358.892638                       # average overall mshr miss latency
system.cpu.icache.demand_avg_mshr_miss_latency::total 105358.892638                       # average overall mshr miss latency
system.cpu.icache.overall_avg_mshr_miss_latency::.cpu.inst 105358.892638                       # average overall mshr miss latency
system.cpu.icache.overall_avg_mshr_miss_latency::total 105358.892638                       # average overall mshr miss latency
system.cpu.icache.replacements                      0                       # number of replacements
system.cpu.icache.ReadReq_hits::.cpu.inst      2004320                       # number of ReadReq hits
system.cpu.icache.ReadReq_hits::total         2004320                       # number of ReadReq hits
system.cpu.icache.ReadReq_misses::.cpu.inst          440                       # number of ReadReq misses
system.cpu.icache.ReadReq_misses::total           440                       # number of ReadReq misses
system.cpu.icache.ReadReq_miss_latency::.cpu.inst     43417999                       # number of ReadReq miss cycles
system.cpu.icache.ReadReq_miss_latency::total     43417999                       # number of ReadReq miss cycles
system.cpu.icache.ReadReq_accesses::.cpu.inst      2004760                       # number of ReadReq accesses(hits+misses)
system.cpu.icache.ReadReq_accesses::total      2004760                       # number of ReadReq accesses(hits+misses)
system.cpu.icache.ReadReq_miss_rate::.cpu.inst     0.000219                       # miss rate for ReadReq accesses
system.cpu.icache.ReadReq_miss_rate::total     0.000219                       # miss rate for ReadReq accesses
system.cpu.icache.ReadReq_avg_miss_latency::.cpu.inst 98677.270455                       # average ReadReq miss latency
system.cpu.icache.ReadReq_avg_miss_latency::total 98677.270455                       # average ReadReq miss latency
system.cpu.icache.ReadReq_mshr_hits::.cpu.inst          114                       # number of ReadReq MSHR hits
system.cpu.icache.ReadReq_mshr_hits::total          114                       # number of ReadReq MSHR hits
system.cpu.icache.ReadReq_mshr_misses::.cpu.inst          326                       # number of ReadReq MSHR misses
system.cpu.icache.ReadReq_mshr_misses::total          326                       # number of ReadReq MSHR misses
system.cpu.icache.ReadReq_mshr_miss_latency::.cpu.inst     34346999                       # number of ReadReq MSHR miss cycles
system.cpu.icache.ReadReq_mshr_miss_latency::total     34346999                       # number of ReadReq MSHR miss cycles
system.cpu.icache.ReadReq_mshr_miss_rate::.cpu.inst     0.000163                       # mshr miss rate for ReadReq accesses
system.cpu.icache.ReadReq_mshr_miss_rate::total     0.000163                       # mshr miss rate for ReadReq accesses
system.cpu.icache.ReadReq_avg_mshr_miss_latency::.cpu.inst 105358.892638                       # average ReadReq mshr miss latency
system.cpu.icache.ReadReq_avg_mshr_miss_latency::total 105358.892638                       # average ReadReq mshr miss latency
system.cpu.icache.tags.pwrStateResidencyTicks::UNDEFINED  29107450000                       # Cumulative time (in ticks) in various power states
system.cpu.icache.tags.tagsinuse           302.831050                       # Cycle average of tags in use
system.cpu.icache.tags.total_refs             2004645                       # Total number of references to valid blocks.
system.cpu.icache.tags.sampled_refs               325                       # Sample count of references to valid blocks.
system.cpu.icache.tags.avg_refs           6168.138462                       # Average number of references to valid blocks.
system.cpu.icache.tags.warmup_cycle            107000                       # Cycle when the warmup percentage was hit.
system.cpu.icache.tags.occ_blocks::.cpu.inst   302.831050                       # Average occupied blocks per requestor
system.cpu.icache.tags.occ_percent::.cpu.inst     0.147867                       # Average percentage of cache occupancy
system.cpu.icache.tags.occ_percent::total     0.147867                       # Average percentage of cache occupancy
system.cpu.icache.tags.occ_task_id_blocks::1024          325                       # Occupied blocks per task id
system.cpu.icache.tags.age_task_id_blocks_1024::0           22                       # Occupied blocks per task id
system.cpu.icache.tags.age_task_id_blocks_1024::4          303                       # Occupied blocks per task id
system.cpu.icache.tags.occ_task_id_percent::1024     0.158691                       # Percentage of cache occupancy per task id
system.cpu.icache.tags.tag_accesses           4009845                       # Number of tag accesses
system.cpu.icache.tags.data_accesses          4009845                       # Number of data accesses
system.cpu.dtb.walker.pwrStateResidencyTicks::UNDEFINED  29107450000                       # Cumulative time (in ticks) in various power states
system.cpu.interrupts.clk_domain.clock          16000                       # Clock period in ticks
system.cpu.itb.walker.pwrStateResidencyTicks::UNDEFINED  29107450000                       # Cumulative time (in ticks) in various power states
system.cpu.dcache.pwrStateResidencyTicks::UNDEFINED  29107450000                       # Cumulative time (in ticks) in various power states
system.cpu.dcache.demand_hits::.cpu.data      2374011                       # number of demand (read+write) hits
system.cpu.dcache.demand_hits::total          2374011                       # number of demand (read+write) hits
system.cpu.dcache.overall_hits::.cpu.data      2374011                       # number of overall hits
system.cpu.dcache.overall_hits::total         2374011                       # number of overall hits
system.cpu.dcache.demand_misses::.cpu.data       827516                       # number of demand (read+write) misses
system.cpu.dcache.demand_misses::total         827516                       # number of demand (read+write) misses
system.cpu.dcache.overall_misses::.cpu.data       827516                       # number of overall misses
system.cpu.dcache.overall_misses::total        827516                       # number of overall misses
system.cpu.dcache.demand_miss_latency::.cpu.data  22573388000                       # number of demand (read+write) miss cycles
system.cpu.dcache.demand_miss_latency::total  22573388000                       # number of demand (read+write) miss cycles
system.cpu.dcache.overall_miss_latency::.cpu.data  22573388000                       # number of overall miss cycles
system.cpu.dcache.overall_miss_latency::total  22573388000                       # number of overall miss cycles
system.cpu.dcache.demand_accesses::.cpu.data      3201527                       # number of demand (read+write) accesses
system.cpu.dcache.demand_accesses::total      3201527                       # number of demand (read+write) accesses
system.cpu.dcache.overall_accesses::.cpu.data      3201527                       # number of overall (read+write) accesses
system.cpu.dcache.overall_accesses::total      3201527                       # number of overall (read+write) accesses
system.cpu.dcache.demand_miss_rate::.cpu.data     0.258475                       # miss rate for demand accesses
system.cpu.dcache.demand_miss_rate::total     0.258475                       # miss rate for demand accesses
system.cpu.dcache.overall_miss_rate::.cpu.data     0.258475                       # miss rate for overall accesses
system.cpu.dcache.overall_miss_rate::total     0.258475                       # miss rate for overall accesses
system.cpu.dcache.demand_avg_miss_latency::.cpu.data 27278.491292                       # average overall miss latency
system.cpu.dcache.demand_avg_miss_latency::total 27278.491292                       # average overall miss latency
system.cpu.dcache.overall_avg_miss_latency::.cpu.data 27278.491292                       # average overall miss latency
system.cpu.dcache.overall_avg_miss_latency::total 27278.491292                       # average overall miss latency
system.cpu.dcache.blocked_cycles::no_mshrs          170                       # number of cycles access was blocked
system.cpu.dcache.blocked_cycles::no_targets            0                       # number of cycles access was blocked
system.cpu.dcache.blocked::no_mshrs                14                       # number of cycles access was blocked
system.cpu.dcache.blocked::no_targets               0                       # number of cycles access was blocked
system.cpu.dcache.avg_blocked_cycles::no_mshrs    12.142857                       # average number of cycles each access was blocked
system.cpu.dcache.avg_blocked_cycles::no_targets          nan                       # average number of cycles each access was blocked
system.cpu.dcache.writebacks::.writebacks       763197                       # number of writebacks
system.cpu.dcache.writebacks::total            763197                       # number of writebacks
system.cpu.dcache.demand_mshr_hits::.cpu.data        62233                       # number of demand (read+write) MSHR hits
system.cpu.dcache.demand_mshr_hits::total        62233                       # number of demand (read+write) MSHR hits
system.cpu.dcache.overall_mshr_hits::.cpu.data        62233                       # number of overall MSHR hits
system.cpu.dcache.overall_mshr_hits::total        62233                       # number of overall MSHR hits
system.cpu.dcache.demand_mshr_misses::.cpu.data       765283                       # number of demand (read+write) MSHR misses
system.cpu.dcache.demand_mshr_misses::total       765283                       # number of demand (read+write) MSHR misses
system.cpu.dcache.overall_mshr_misses::.cpu.data       765283                       # number of overall MSHR misses
system.cpu.dcache.overall_mshr_misses::total       765283                       # number of overall MSHR misses
system.cpu.dcache.demand_mshr_miss_latency::.cpu.data  20070804000                       # number of demand (read+write) MSHR miss cycles
system.cpu.dcache.demand_mshr_miss_latency::total  20070804000                       # number of demand (read+write) MSHR miss cycles
system.cpu.dcache.overall_mshr_miss_latency::.cpu.data  20070804000                       # number of overall MSHR miss cycles
system.cpu.dcache.overall_mshr_miss_latency::total  20070804000                       # number of overall MSHR miss cycles
system.cpu.dcache.demand_mshr_miss_rate::.cpu.data     0.239037                       # mshr miss rate for demand accesses
system.cpu.dcache.demand_mshr_miss_rate::total     0.239037                       # mshr miss rate for demand accesses
system.cpu.dcache.overall_mshr_miss_rate::.cpu.data     0.239037                       # mshr miss rate for overall accesses
system.cpu.dcache.overall_mshr_miss_rate::total     0.239037                       # mshr miss rate for overall accesses
system.cpu.dcache.demand_avg_mshr_miss_latency::.cpu.data 26226.642954                       # average overall mshr miss latency
system.cpu.dcache.demand_avg_mshr_miss_latency::total 26226.642954                       # average overall mshr miss latency
system.cpu.dcache.overall_avg_mshr_miss_latency::.cpu.data 26226.642954                       # average overall mshr miss latency
system.cpu.dcache.overall_avg_mshr_miss_latency::total 26226.642954                       # average overall mshr miss latency
system.cpu.dcache.replacements                 763234                       # number of replacements
system.cpu.dcache.ReadReq_hits::.cpu.data       924719                       # number of ReadReq hits
system.cpu.dcache.ReadReq_hits::total          924719                       # number of ReadReq hits
system.cpu.dcache.ReadReq_misses::.cpu.data        77905                       # number of ReadReq misses
system.cpu.dcache.ReadReq_misses::total         77905                       # number of ReadReq misses
system.cpu.dcache.ReadReq_miss_latency::.cpu.data   1385596000                       # number of ReadReq miss cycles
system.cpu.dcache.ReadReq_miss_latency::total   1385596000                       # number of ReadReq miss cycles
system.cpu.dcache.ReadReq_accesses::.cpu.data      1002624                       # number of ReadReq accesses(hits+misses)
system.cpu.dcache.ReadReq_accesses::total      1002624                       # number of ReadReq accesses(hits+misses)
system.cpu.dcache.ReadReq_miss_rate::.cpu.data     0.077701                       # miss rate for ReadReq accesses
system.cpu.dcache.ReadReq_miss_rate::total     0.077701                       # miss rate for ReadReq accesses
system.cpu.dcache.ReadReq_avg_miss_latency::.cpu.data 17785.713369                       # average ReadReq miss latency
system.cpu.dcache.ReadReq_avg_miss_latency::total 17785.713369                       # average ReadReq miss latency
system.cpu.dcache.ReadReq_mshr_hits::.cpu.data        62232                       # number of ReadReq MSHR hits
system.cpu.dcache.ReadReq_mshr_hits::total        62232                       # number of ReadReq MSHR hits
system.cpu.dcache.ReadReq_mshr_misses::.cpu.data        15673                       # number of ReadReq MSHR misses
system.cpu.dcache.ReadReq_mshr_misses::total        15673                       # number of ReadReq MSHR misses
system.cpu.dcache.ReadReq_mshr_miss_latency::.cpu.data    382314000                       # number of ReadReq MSHR miss cycles
system.cpu.dcache.ReadReq_mshr_miss_latency::total    382314000                       # number of ReadReq MSHR miss cycles
system.cpu.dcache.ReadReq_mshr_miss_rate::.cpu.data     0.015632                       # mshr miss rate for ReadReq accesses
system.cpu.dcache.ReadReq_mshr_miss_rate::total     0.015632                       # mshr miss rate for ReadReq accesses
system.cpu.dcache.ReadReq_avg_mshr_miss_latency::.cpu.data 24393.160212                       # average ReadReq mshr miss latency
system.cpu.dcache.ReadReq_avg_mshr_miss_latency::total 24393.160212                       # average ReadReq mshr miss latency
system.cpu.dcache.WriteReq_hits::.cpu.data      1449292                       # number of WriteReq hits
system.cpu.dcache.WriteReq_hits::total        1449292                       # number of WriteReq hits
system.cpu.dcache.WriteReq_misses::.cpu.data       749611                       # number of WriteReq misses
system.cpu.dcache.WriteReq_misses::total       749611                       # number of WriteReq misses
system.cpu.dcache.WriteReq_miss_latency::.cpu.data  21187792000                       # number of WriteReq miss cycles
system.cpu.dcache.WriteReq_miss_latency::total  21187792000                       # number of WriteReq miss cycles
system.cpu.dcache.WriteReq_accesses::.cpu.data      2198903                       # number of WriteReq accesses(hits+misses)
system.cpu.dcache.WriteReq_accesses::total      2198903                       # number of WriteReq accesses(hits+misses)
system.cpu.dcache.WriteReq_miss_rate::.cpu.data     0.340902                       # miss rate for WriteReq accesses
system.cpu.dcache.WriteReq_miss_rate::total     0.340902                       # miss rate for WriteReq accesses
system.cpu.dcache.WriteReq_avg_miss_latency::.cpu.data 28265.049472                       # average WriteReq miss latency
system.cpu.dcache.WriteReq_avg_miss_latency::total 28265.049472                       # average WriteReq miss latency
system.cpu.dcache.WriteReq_mshr_hits::.cpu.data            1                       # number of WriteReq MSHR hits
system.cpu.dcache.WriteReq_mshr_hits::total            1                       # number of WriteReq MSHR hits
system.cpu.dcache.WriteReq_mshr_misses::.cpu.data       749610                       # number of WriteReq MSHR misses
system.cpu.dcache.WriteReq_mshr_misses::total       749610                       # number of WriteReq MSHR misses
system.cpu.dcache.WriteReq_mshr_miss_latency::.cpu.data  19688490000                       # number of WriteReq MSHR miss cycles
system.cpu.dcache.WriteReq_mshr_miss_latency::total  19688490000                       # number of WriteReq MSHR miss cycles
system.cpu.dcache.WriteReq_mshr_miss_rate::.cpu.data     0.340902                       # mshr miss rate for WriteReq accesses
system.cpu.dcache.WriteReq_mshr_miss_rate::total     0.340902                       # mshr miss rate for WriteReq accesses
system.cpu.dcache.WriteReq_avg_mshr_miss_latency::.cpu.data 26264.977788                       # average WriteReq mshr miss latency
system.cpu.dcache.WriteReq_avg_mshr_miss_latency::total 26264.977788                       # average WriteReq mshr miss latency
system.cpu.dcache.tags.pwrStateResidencyTicks::UNDEFINED  29107450000                       # Cumulative time (in ticks) in various power states
system.cpu.dcache.tags.tagsinuse          2035.632794                       # Cycle average of tags in use
system.cpu.dcache.tags.total_refs             3139293                       # Total number of references to valid blocks.
system.cpu.dcache.tags.sampled_refs            765282                       # Sample count of references to valid blocks.
system.cpu.dcache.tags.avg_refs              4.102139                       # Average number of references to valid blocks.
system.cpu.dcache.tags.warmup_cycle            236000                       # Cycle when the warmup percentage was hit.
system.cpu.dcache.tags.occ_blocks::.cpu.data  2035.632794                       # Average occupied blocks per requestor
system.cpu.dcache.tags.occ_percent::.cpu.data     0.993961                       # Average percentage of cache occupancy
system.cpu.dcache.tags.occ_percent::total     0.993961                       # Average percentage of cache occupancy
system.cpu.dcache.tags.occ_task_id_blocks::1024         2048                       # Occupied blocks per task id
system.cpu.dcache.tags.age_task_id_blocks_1024::0           55                       # Occupied blocks per task id
system.cpu.dcache.tags.age_task_id_blocks_1024::1          281                       # Occupied blocks per task id
system.cpu.dcache.tags.age_task_id_blocks_1024::2         1712                       # Occupied blocks per task id
system.cpu.dcache.tags.occ_task_id_percent::1024            1                       # Percentage of cache occupancy per task id
system.cpu.dcache.tags.tag_accesses           7168336                       # Number of tag accesses
system.cpu.dcache.tags.data_accesses          7168336                       # Number of data accesses
system.l2cache.pwrStateResidencyTicks::UNDEFINED  29107450000                       # Cumulative time (in ticks) in various power states
system.l2cache.demand_hits::.cpu.inst               1                       # number of demand (read+write) hits
system.l2cache.demand_hits::.cpu.data          749488                       # number of demand (read+write) hits
system.l2cache.demand_hits::total              749489                       # number of demand (read+write) hits
system.l2cache.overall_hits::.cpu.inst              1                       # number of overall hits
system.l2cache.overall_hits::.cpu.data         749488                       # number of overall hits
system.l2cache.overall_hits::total             749489                       # number of overall hits
system.l2cache.demand_misses::.cpu.inst           325                       # number of demand (read+write) misses
system.l2cache.demand_misses::.cpu.data         15795                       # number of demand (read+write) misses
system.l2cache.demand_misses::total             16120                       # number of demand (read+write) misses
system.l2cache.overall_misses::.cpu.inst          325                       # number of overall misses
system.l2cache.overall_misses::.cpu.data        15795                       # number of overall misses
system.l2cache.overall_misses::total            16120                       # number of overall misses
system.l2cache.demand_miss_latency::.cpu.inst     33343000                       # number of demand (read+write) miss cycles
system.l2cache.demand_miss_latency::.cpu.data   1505063000                       # number of demand (read+write) miss cycles
system.l2cache.demand_miss_latency::total   1538406000                       # number of demand (read+write) miss cycles
system.l2cache.overall_miss_latency::.cpu.inst     33343000                       # number of overall miss cycles
system.l2cache.overall_miss_latency::.cpu.data   1505063000                       # number of overall miss cycles
system.l2cache.overall_miss_latency::total   1538406000                       # number of overall miss cycles
system.l2cache.demand_accesses::.cpu.inst          326                       # number of demand (read+write) accesses
[...]
system.mem_ctrl.rdQLenPdf::13                       0                       # What read queue length does an incoming req see
system.mem_ctrl.rdQLenPdf::14                       0                       # What read queue length does an incoming req see
system.mem_ctrl.rdQLenPdf::15                       0                       # What read queue length does an incoming req see
system.mem_ctrl.rdQLenPdf::16                       0                       # What read queue length does an incoming req see
system.mem_ctrl.rdQLenPdf::17                       0                       # What read queue length does an incoming req see
system.mem_ctrl.rdQLenPdf::18                       0                       # What read queue length does an incoming req see
system.mem_ctrl.rdQLenPdf::19                       0                       # What read queue length does an incoming req see
system.mem_ctrl.rdQLenPdf::20                       0                       # What read queue length does an incoming req see
system.mem_ctrl.rdQLenPdf::21                       0                       # What read queue length does an incoming req see
system.mem_ctrl.rdQLenPdf::22                       0                       # What read queue length does an incoming req see
system.mem_ctrl.rdQLenPdf::23                       0                       # What read queue length does an incoming req see
system.mem_ctrl.rdQLenPdf::24                       0                       # What read queue length does an incoming req see
system.mem_ctrl.rdQLenPdf::25                       0                       # What read queue length does an incoming req see
system.mem_ctrl.rdQLenPdf::26                       0                       # What read queue length does an incoming req see
system.mem_ctrl.rdQLenPdf::27                       0                       # What read queue length does an incoming req see
system.mem_ctrl.rdQLenPdf::28                       0                       # What read queue length does an incoming req see
system.mem_ctrl.rdQLenPdf::29                       0                       # What read queue length does an incoming req see
system.mem_ctrl.rdQLenPdf::30                       0                       # What read queue length does an incoming req see
system.mem_ctrl.rdQLenPdf::31                       0                       # What read queue length does an incoming req see
system.mem_ctrl.wrQLenPdf::0                        1                       # What write queue length does an incoming req see
system.mem_ctrl.wrQLenPdf::1                        1                       # What write queue length does an incoming req see
system.mem_ctrl.wrQLenPdf::2                        1                       # What write queue length does an incoming req see
system.mem_ctrl.wrQLenPdf::3                        1                       # What write queue length does an incoming req see
system.mem_ctrl.wrQLenPdf::4                        1                       # What write queue length does an incoming req see
system.mem_ctrl.wrQLenPdf::5                        1                       # What write queue length does an incoming req see
system.mem_ctrl.wrQLenPdf::6                        1                       # What write queue length does an incoming req see
system.mem_ctrl.wrQLenPdf::7                        1                       # What write queue length does an incoming req see
system.mem_ctrl.wrQLenPdf::8                        1                       # What write queue length does an incoming req see
system.mem_ctrl.wrQLenPdf::9                        1                       # What write queue length does an incoming req see
system.mem_ctrl.wrQLenPdf::10                       1                       # What write queue length does an incoming req see
system.mem_ctrl.wrQLenPdf::11                       1                       # What write queue length does an incoming req see
system.mem_ctrl.wrQLenPdf::12                       1                       # What write queue length does an incoming req see
system.mem_ctrl.wrQLenPdf::13                       1                       # What write queue length does an incoming req see
system.mem_ctrl.wrQLenPdf::14                       1                       # What write queue length does an incoming req see
system.mem_ctrl.wrQLenPdf::15                       1                       # What write queue length does an incoming req see
system.mem_ctrl.wrQLenPdf::16                       1                       # What write queue length does an incoming req see
system.mem_ctrl.wrQLenPdf::17                       1                       # What write queue length does an incoming req see
system.mem_ctrl.wrQLenPdf::18                       1                       # What write queue length does an incoming req see
system.mem_ctrl.wrQLenPdf::19                       1                       # What write queue length does an incoming req see
system.mem_ctrl.wrQLenPdf::20                       1                       # What write queue length does an incoming req see
system.mem_ctrl.wrQLenPdf::21                       1                       # What write queue length does an incoming req see
system.mem_ctrl.wrQLenPdf::22                       1                       # What write queue length does an incoming req see
system.mem_ctrl.wrQLenPdf::23                       0                       # What write queue length does an incoming req see
system.mem_ctrl.wrQLenPdf::24                       0                       # What write queue length does an incoming req see
system.mem_ctrl.wrQLenPdf::25                       0                       # What write queue length does an incoming req see
system.mem_ctrl.wrQLenPdf::26                       0                       # What write queue length does an incoming req see
system.mem_ctrl.wrQLenPdf::27                       0                       # What write queue length does an incoming req see
system.mem_ctrl.wrQLenPdf::28                       0                       # What write queue length does an incoming req see
system.mem_ctrl.wrQLenPdf::29                       0                       # What write queue length does an incoming req see
system.mem_ctrl.wrQLenPdf::30                       0                       # What write queue length does an incoming req see
system.mem_ctrl.wrQLenPdf::31                       0                       # What write queue length does an incoming req see
system.mem_ctrl.wrQLenPdf::32                       0                       # What write queue length does an incoming req see
system.mem_ctrl.wrQLenPdf::33                       0                       # What write queue length does an incoming req see
system.mem_ctrl.wrQLenPdf::34                       0                       # What write queue length does an incoming req see
system.mem_ctrl.wrQLenPdf::35                       0                       # What write queue length does an incoming req see
system.mem_ctrl.wrQLenPdf::36                       0                       # What write queue length does an incoming req see
system.mem_ctrl.wrQLenPdf::37                       0                       # What write queue length does an incoming req see
system.mem_ctrl.wrQLenPdf::38                       0                       # What write queue length does an incoming req see
system.mem_ctrl.wrQLenPdf::39                       0                       # What write queue length does an incoming req see
system.mem_ctrl.wrQLenPdf::40                       0                       # What write queue length does an incoming req see
system.mem_ctrl.wrQLenPdf::41                       0                       # What write queue length does an incoming req see
system.mem_ctrl.wrQLenPdf::42                       0                       # What write queue length does an incoming req see
system.mem_ctrl.wrQLenPdf::43                       0                       # What write queue length does an incoming req see
system.mem_ctrl.wrQLenPdf::44                       0                       # What write queue length does an incoming req see
system.mem_ctrl.wrQLenPdf::45                       0                       # What write queue length does an incoming req see
system.mem_ctrl.wrQLenPdf::46                       0                       # What write queue length does an incoming req see
system.mem_ctrl.wrQLenPdf::47                       0                       # What write queue length does an incoming req see
system.mem_ctrl.wrQLenPdf::48                       0                       # What write queue length does an incoming req see
system.mem_ctrl.wrQLenPdf::49                       0                       # What write queue length does an incoming req see
system.mem_ctrl.wrQLenPdf::50                       0                       # What write queue length does an incoming req see
system.mem_ctrl.wrQLenPdf::51                       0                       # What write queue length does an incoming req see
system.mem_ctrl.wrQLenPdf::52                       0                       # What write queue length does an incoming req see
system.mem_ctrl.wrQLenPdf::53                       0                       # What write queue length does an incoming req see
system.mem_ctrl.wrQLenPdf::54                       0                       # What write queue length does an incoming req see
system.mem_ctrl.wrQLenPdf::55                       0                       # What write queue length does an incoming req see
system.mem_ctrl.wrQLenPdf::56                       0                       # What write queue length does an incoming req see
system.mem_ctrl.wrQLenPdf::57                       0                       # What write queue length does an incoming req see
system.mem_ctrl.wrQLenPdf::58                       0                       # What write queue length does an incoming req see
system.mem_ctrl.wrQLenPdf::59                       0                       # What write queue length does an incoming req see
system.mem_ctrl.wrQLenPdf::60                       0                       # What write queue length does an incoming req see
system.mem_ctrl.wrQLenPdf::61                       0                       # What write queue length does an incoming req see
system.mem_ctrl.wrQLenPdf::62                       0                       # What write queue length does an incoming req see
system.mem_ctrl.wrQLenPdf::63                       0                       # What write queue length does an incoming req see
system.mem_ctrl.bytesPerActivate::samples         1212                       # Bytes accessed per row activation
system.mem_ctrl.bytesPerActivate::mean     849.267327                       # Bytes accessed per row activation
system.mem_ctrl.bytesPerActivate::gmean    715.005193                       # Bytes accessed per row activation
system.mem_ctrl.bytesPerActivate::stdev    323.290235                       # Bytes accessed per row activation
system.mem_ctrl.bytesPerActivate::0-127            40      3.30%      3.30% # Bytes accessed per row activation
system.mem_ctrl.bytesPerActivate::128-255          158     13.04%     16.34% # Bytes accessed per row activation
system.mem_ctrl.bytesPerActivate::256-383           12      0.99%     17.33% # Bytes accessed per row activation
system.mem_ctrl.bytesPerActivate::384-511            7      0.58%     17.90% # Bytes accessed per row activation
system.mem_ctrl.bytesPerActivate::512-639            4      0.33%     18.23% # Bytes accessed per row activation
system.mem_ctrl.bytesPerActivate::640-767            3      0.25%     18.48% # Bytes accessed per row activation
system.mem_ctrl.bytesPerActivate::768-895          126     10.40%     28.88% # Bytes accessed per row activation
system.mem_ctrl.bytesPerActivate::896-1023            2      0.17%     29.04% # Bytes accessed per row activation
system.mem_ctrl.bytesPerActivate::1024-1151          860     70.96%    100.00% # Bytes accessed per row activation
system.mem_ctrl.bytesPerActivate::total          1212                       # Bytes accessed per row activation
system.mem_ctrl.bytesReadDRAM                 1031616                       # Total number of bytes read from DRAM
system.mem_ctrl.bytesReadWrQ                        0                       # Total number of bytes read from write queue
system.mem_ctrl.bytesWritten                        0                       # Total number of bytes written to DRAM
system.mem_ctrl.bytesReadSys                  1031616                       # Total read bytes from the system interface side
system.mem_ctrl.bytesWrittenSys                  1472                       # Total written bytes from the system interface side
system.mem_ctrl.avgRdBW                         35.44                       # Average DRAM read bandwidth in MiByte/s
system.mem_ctrl.avgWrBW                          0.00                       # Average achieved write bandwidth in MiByte/s
system.mem_ctrl.avgRdBWSys                      35.44                       # Average system read bandwidth in MiByte/s
system.mem_ctrl.avgWrBWSys                       0.05                       # Average system write bandwidth in MiByte/s
system.mem_ctrl.peakBW                       12800.00                       # Theoretical peak bandwidth in MiByte/s
system.mem_ctrl.busUtil                          0.28                       # Data bus utilization in percentage
system.mem_ctrl.busUtilRead                      0.28                       # Data bus utilization in percentage for reads
system.mem_ctrl.busUtilWrite                     0.00                       # Data bus utilization in percentage for writes
system.mem_ctrl.totGap                    29107399000                       # Total gap between requests
system.mem_ctrl.avgGap                     1803208.96                       # Average gap between requests
system.mem_ctrl.masterReadBytes::.cpu.inst        20736                       # Per-master bytes read from memory
system.mem_ctrl.masterReadBytes::.cpu.data      1010880                       # Per-master bytes read from memory
system.mem_ctrl.masterReadRate::.cpu.inst 712394.936691465555                       # Per-master bytes read from memory rate (Bytes/sec)
system.mem_ctrl.masterReadRate::.cpu.data 34729253.163708947599                       # Per-master bytes read from memory rate (Bytes/sec)
system.mem_ctrl.masterReadAccesses::.cpu.inst          324                       # Per-master read serviced memory accesses
system.mem_ctrl.masterReadAccesses::.cpu.data        15795                       # Per-master read serviced memory accesses
system.mem_ctrl.masterWriteAccesses::.writebacks           23                       # Per-master write serviced memory accesses
system.mem_ctrl.masterReadTotalLat::.cpu.inst     10233750                       # Per-master read total memory access latency
system.mem_ctrl.masterReadTotalLat::.cpu.data    379515000                       # Per-master read total memory access latency
system.mem_ctrl.masterReadAvgLat::.cpu.inst     31585.65                       # Per-master read average memory access latency
system.mem_ctrl.masterReadAvgLat::.cpu.data     24027.54                       # Per-master read average memory access latency
system.mem_ctrl.masterWriteAvgLat::.writebacks         0.00                       # Per-master write average memory access latency
system.mem_ctrl.pageHitRate                     92.30                       # Row buffer hit rate, read and write combined
system.mem_ctrl.rank1.actEnergy               4184040                       # Energy for activate commands per rank (pJ)
system.mem_ctrl.rank1.preEnergy               2204895                       # Energy for precharge commands per rank (pJ)
system.mem_ctrl.rank1.readEnergy             57120000                       # Energy for read commands per rank (pJ)
system.mem_ctrl.rank1.writeEnergy                   0                       # Energy for write commands per rank (pJ)
system.mem_ctrl.rank1.refreshEnergy      2297524320.000000                       # Energy for refresh commands per rank (pJ)
system.mem_ctrl.rank1.actBackEnergy         980963730                       # Energy for active background per rank (pJ)
system.mem_ctrl.rank1.preBackEnergy       10351186080                       # Energy for precharge background per rank (pJ)
system.mem_ctrl.rank1.actPowerDownEnergy            0                       # Energy for active power-down per rank (pJ)
system.mem_ctrl.rank1.prePowerDownEnergy            0                       # Energy for precharge power-down per rank (pJ)
system.mem_ctrl.rank1.selfRefreshEnergy             0                       # Energy for self refresh per rank (pJ)
system.mem_ctrl.rank1.totalEnergy         13693183065                       # Total energy per rank (pJ)
system.mem_ctrl.rank1.averagePower         470.435681                       # Core power per rank (mW)
system.mem_ctrl.rank1.totalIdleTime                 0                       # Total Idle time Per DRAM Rank
system.mem_ctrl.rank1.memoryStateTime::IDLE  26898682750                       # Time in different power states
system.mem_ctrl.rank1.memoryStateTime::REF    971880000                       # Time in different power states
system.mem_ctrl.rank1.memoryStateTime::SREF            0                       # Time in different power states
system.mem_ctrl.rank1.memoryStateTime::PRE_PDN            0                       # Time in different power states
system.mem_ctrl.rank1.memoryStateTime::ACT   1236887250                       # Time in different power states
system.mem_ctrl.rank1.memoryStateTime::ACT_PDN            0                       # Time in different power states
system.mem_ctrl.rank0.actEnergy               4526760                       # Energy for activate commands per rank (pJ)
system.mem_ctrl.rank0.preEnergy               2394645                       # Energy for precharge commands per rank (pJ)
system.mem_ctrl.rank0.readEnergy             57969660                       # Energy for read commands per rank (pJ)
system.mem_ctrl.rank0.writeEnergy                   0                       # Energy for write commands per rank (pJ)
system.mem_ctrl.rank0.refreshEnergy      2297524320.000000                       # Energy for refresh commands per rank (pJ)
system.mem_ctrl.rank0.actBackEnergy         980213040                       # Energy for active background per rank (pJ)
system.mem_ctrl.rank0.preBackEnergy       10351818240                       # Energy for precharge background per rank (pJ)
system.mem_ctrl.rank0.actPowerDownEnergy            0                       # Energy for active power-down per rank (pJ)
system.mem_ctrl.rank0.prePowerDownEnergy            0                       # Energy for precharge power-down per rank (pJ)
system.mem_ctrl.rank0.selfRefreshEnergy             0                       # Energy for self refresh per rank (pJ)
system.mem_ctrl.rank0.totalEnergy         13694446665                       # Total energy per rank (pJ)
system.mem_ctrl.rank0.averagePower         470.479093                       # Core power per rank (mW)
system.mem_ctrl.rank0.totalIdleTime                 0                       # Total Idle time Per DRAM Rank
system.mem_ctrl.rank0.memoryStateTime::IDLE  26900179250                       # Time in different power states
system.mem_ctrl.rank0.memoryStateTime::REF    971880000                       # Time in different power states
system.mem_ctrl.rank0.memoryStateTime::SREF            0                       # Time in different power states
system.mem_ctrl.rank0.memoryStateTime::PRE_PDN            0                       # Time in different power states
system.mem_ctrl.rank0.memoryStateTime::ACT   1235390750                       # Time in different power states
system.mem_ctrl.rank0.memoryStateTime::ACT_PDN            0                       # Time in different power states

---------- End Simulation Statistics   ----------
