
---------- Begin Simulation Statistics ----------
final_tick                                12130244000                       # Number of ticks from beginning of simulation (restored from checkpoints and never reset)
host_inst_rate                                 157696                       # Simulator instruction rate (inst/s)
host_mem_usage                                 796328                       # Number of bytes of host memory used
host_op_rate                                   249735                       # Simulator op (including micro ops) rate (op/s)
host_seconds                                    38.08                       # Real time elapsed on the host
host_tick_rate                              318577905                       # Simulator tick rate (ticks/s)
sim_freq                                 1000000000000                       # Frequency of simulated ticks
sim_insts                                     6004432                       # Number of instructions simulated
sim_ops                                       9508953                       # Number of ops (including micro ops) simulated
sim_seconds                                  0.012130                       # Number of seconds simulated
sim_ticks                                 12130244000                       # Number of ticks simulated
system.cpu.branchPred.BTBCorrect                    0                       # Number of correct BTB predictions (this stat may not work properly.
system.cpu.branchPred.BTBHitPct              0.000000                       # BTB Hit Percentage
system.cpu.branchPred.BTBHits                       0                       # Number of BTB hits
system.cpu.branchPred.BTBLookups               502254                       # Number of BTB lookups
system.cpu.branchPred.RASInCorrect                  1                       # Number of incorrect RAS predictions.
system.cpu.branchPred.condIncorrect               482                       # Number of conditional branches incorrect
system.cpu.branchPred.condPredicted            502024                       # Number of conditional branches predicted
system.cpu.branchPred.indirectHits             500289                       # Number of indirect target hits.
system.cpu.branchPred.indirectLookups          502254                       # Number of indirect predictor lookups.
system.cpu.branchPred.indirectMisses             1965                       # Number of indirect misses.
system.cpu.branchPred.lookups                  502684                       # Number of BP lookups
system.cpu.branchPred.usedRAS                     224                       # Number of times the RAS was used to get a target.
system.cpu.branchPredindirectMispredicted          422                       # Number of mispredicted indirect branches.
system.cpu.cc_regfile_reads                   5006422                       # number of cc regfile reads
system.cpu.cc_regfile_writes                  9004138                       # number of cc regfile writes
system.cpu.commit.amos                              0                       # Number of atomic instructions committed
system.cpu.commit.branchMispredicts               491                       # The number of times a branch was mispredicted
system.cpu.commit.branches                     500944                       # Number of branches committed
system.cpu.commit.bw_lim_events               1040156                       # number cycles where commit BW limit reached
system.cpu.commit.commitNonSpecStalls               8                       # The number of times commit has been forced to stall to communicate backwards
system.cpu.commit.commitSquashedInsts           10811                       # The number of squashed insts skipped by commit
system.cpu.commit.committedInsts              6004432                       # Number of instructions committed
system.cpu.commit.committedOps                9508953                       # Number of ops (including micro ops) committed
system.cpu.commit.committed_per_cycle::samples     12117034                       # Number of insts commited each cycle
system.cpu.commit.committed_per_cycle::mean     0.784759                       # Number of insts commited each cycle
system.cpu.commit.committed_per_cycle::stdev     2.268935                       # Number of insts commited each cycle
system.cpu.commit.committed_per_cycle::underflows            0      0.00%      0.00% # Number of insts commited each cycle
system.cpu.commit.committed_per_cycle::0     10440661     86.17%     86.17% # Number of insts commited each cycle
system.cpu.commit.committed_per_cycle::1       330125      2.72%     88.89% # Number of insts commited each cycle
system.cpu.commit.committed_per_cycle::2       219275      1.81%     90.70% # Number of insts commited each cycle
system.cpu.commit.committed_per_cycle::3         9547      0.08%     90.78% # Number of insts commited each cycle
system.cpu.commit.committed_per_cycle::4          802      0.01%     90.78% # Number of insts commited each cycle
system.cpu.commit.committed_per_cycle::5        71922      0.59%     91.38% # Number of insts commited each cycle
system.cpu.commit.committed_per_cycle::6         4251      0.04%     91.41% # Number of insts commited each cycle
system.cpu.commit.committed_per_cycle::7          295      0.00%     91.42% # Number of insts commited each cycle
system.cpu.commit.committed_per_cycle::8      1040156      8.58%    100.00% # Number of insts commited each cycle
system.cpu.commit.committed_per_cycle::overflows            0      0.00%    100.00% # Number of insts commited each cycle
system.cpu.commit.committed_per_cycle::min_value            0                       # Number of insts commited each cycle
system.cpu.commit.committed_per_cycle::max_value            8                       # Number of insts commited each cycle
system.cpu.commit.committed_per_cycle::total     12117034                       # Number of insts commited each cycle
system.cpu.commit.fp_insts                        302                       # Number of committed floating point instructions.
system.cpu.commit.function_calls                   88                       # Number of function calls committed.
system.cpu.commit.int_insts                   9508809                       # Number of committed integer instructions.
system.cpu.commit.loads                        500767                       # Number of loads committed
system.cpu.commit.membars                           0                       # Number of memory barriers committed
system.cpu.commit.op_class_0::No_OpClass           40      0.00%      0.00% # Class of committed instruction
system.cpu.commit.op_class_0::IntAlu          9006985     94.72%     94.72% # Class of committed instruction
system.cpu.commit.op_class_0::IntMult               5      0.00%     94.72% # Class of committed instruction
system.cpu.commit.op_class_0::IntDiv               21      0.00%     94.72% # Class of committed instruction
system.cpu.commit.op_class_0::FloatAdd              2      0.00%     94.72% # Class of committed instruction
system.cpu.commit.op_class_0::FloatCmp              0      0.00%     94.72% # Class of committed instruction
system.cpu.commit.op_class_0::FloatCvt              0      0.00%     94.72% # Class of committed instruction
system.cpu.commit.op_class_0::FloatMult             0      0.00%     94.72% # Class of committed instruction
system.cpu.commit.op_class_0::FloatMultAcc            0      0.00%     94.72% # Class of committed instruction
system.cpu.commit.op_class_0::FloatDiv              0      0.00%     94.72% # Class of committed instruction
system.cpu.commit.op_class_0::FloatMisc             0      0.00%     94.72% # Class of committed instruction
system.cpu.commit.op_class_0::FloatSqrt             0      0.00%     94.72% # Class of committed instruction
system.cpu.commit.op_class_0::SimdAdd               0      0.00%     94.72% # Class of committed instruction
system.cpu.commit.op_class_0::SimdAddAcc            0      0.00%     94.72% # Class of committed instruction
system.cpu.commit.op_class_0::SimdAlu              42      0.00%     94.72% # Class of committed instruction
system.cpu.commit.op_class_0::SimdCmp               0      0.00%     94.72% # Class of committed instruction
system.cpu.commit.op_class_0::SimdCvt              30      0.00%     94.72% # Class of committed instruction
system.cpu.commit.op_class_0::SimdMisc             44      0.00%     94.72% # Class of committed instruction
system.cpu.commit.op_class_0::SimdMult              0      0.00%     94.72% # Class of committed instruction
system.cpu.commit.op_class_0::SimdMultAcc            0      0.00%     94.72% # Class of committed instruction
system.cpu.commit.op_class_0::SimdShift             0      0.00%     94.72% # Class of committed instruction
system.cpu.commit.op_class_0::SimdShiftAcc            0      0.00%     94.72% # Class of committed instruction
system.cpu.commit.op_class_0::SimdDiv               0      0.00%     94.72% # Class of committed instruction
system.cpu.commit.op_class_0::SimdSqrt              0      0.00%     94.72% # Class of committed instruction
system.cpu.commit.op_class_0::SimdFloatAdd            0      0.00%     94.72% # Class of committed instruction
system.cpu.commit.op_class_0::SimdFloatAlu            0      0.00%     94.72% # Class of committed instruction
system.cpu.commit.op_class_0::SimdFloatCmp            0      0.00%     94.72% # Class of committed instruction
system.cpu.commit.op_class_0::SimdFloatCvt            0      0.00%     94.72% # Class of committed instruction
system.cpu.commit.op_class_0::SimdFloatDiv            0      0.00%     94.72% # Class of committed instruction
system.cpu.commit.op_class_0::SimdFloatMisc            0      0.00%     94.72% # Class of committed instruction
system.cpu.commit.op_class_0::SimdFloatMult            0      0.00%     94.72% # Class of committed instruction
system.cpu.commit.op_class_0::SimdFloatMultAcc            0      0.00%     94.72% # Class of committed instruction
system.cpu.commit.op_class_0::SimdFloatSqrt            0      0.00%     94.72% # Class of committed instruction
system.cpu.commit.op_class_0::SimdReduceAdd            0      0.00%     94.72% # Class of committed instruction
system.cpu.commit.op_class_0::SimdReduceAlu            0      0.00%     94.72% # Class of committed instruction
system.cpu.commit.op_class_0::SimdReduceCmp            0      0.00%     94.72% # Class of committed instruction
system.cpu.commit.op_class_0::SimdFloatReduceAdd            0      0.00%     94.72% # Class of committed instruction
system.cpu.commit.op_class_0::SimdFloatReduceCmp            0      0.00%     94.72% # Class of committed instruction
system.cpu.commit.op_class_0::SimdAes               0      0.00%     94.72% # Class of committed instruction
system.cpu.commit.op_class_0::SimdAesMix            0      0.00%     94.72% # Class of committed instruction
system.cpu.commit.op_class_0::SimdSha1Hash            0      0.00%     94.72% # Class of committed instruction
system.cpu.commit.op_class_0::SimdSha1Hash2            0      0.00%     94.72% # Class of committed instruction
system.cpu.commit.op_class_0::SimdSha256Hash            0      0.00%     94.72% # Class of committed instruction
system.cpu.commit.op_class_0::SimdSha256Hash2            0      0.00%     94.72% # Class of committed instruction
system.cpu.commit.op_class_0::SimdShaSigma2            0      0.00%     94.72% # Class of committed instruction
system.cpu.commit.op_class_0::SimdShaSigma3            0      0.00%     94.72% # Class of committed instruction
system.cpu.commit.op_class_0::SimdPredAlu            0      0.00%     94.72% # Class of committed instruction
system.cpu.commit.op_class_0::MemRead          500741      5.27%     99.99% # Class of committed instruction
system.cpu.commit.op_class_0::MemWrite            865      0.01%    100.00% # Class of committed instruction
system.cpu.commit.op_class_0::FloatMemRead           26      0.00%    100.00% # Class of committed instruction
system.cpu.commit.op_class_0::FloatMemWrite          152      0.00%    100.00% # Class of committed instruction
system.cpu.commit.op_class_0::IprAccess             0      0.00%    100.00% # Class of committed instruction
system.cpu.commit.op_class_0::InstPrefetch            0      0.00%    100.00% # Class of committed instruction
system.cpu.commit.op_class_0::total           9508953                       # Class of committed instruction
system.cpu.commit.refs                         501784                       # Number of memory references committed
system.cpu.commit.swp_count                         0                       # Number of s/w prefetches committed
system.cpu.commit.vec_insts                         0                       # Number of committed Vector instructions.
system.cpu.committedInsts                     6004432                       # Number of Instructions Simulated
system.cpu.committedOps                       9508953                       # Number of Ops (including micro ops) Simulated
system.cpu.cpi                               2.020215                       # CPI: Cycles Per Instruction
system.cpu.cpi_total                         2.020215                       # CPI: Total CPI of All Threads
system.cpu.decode.BlockedCycles              10555073                       # Number of cycles decode is blocked
system.cpu.decode.DecodedInsts                9523996                       # Number of instructions handled by decode
system.cpu.decode.IdleCycles                   299733                       # Number of cycles decode is idle
system.cpu.decode.RunCycles                    711622                       # Number of cycles decode is running
system.cpu.decode.SquashCycles                    497                       # Number of cycles decode is squashing
system.cpu.decode.UnblockCycles                551908                       # Number of cycles decode is unblocking
system.cpu.dtb.rdAccesses                      501474                       # TLB accesses on read requests
system.cpu.dtb.rdMisses                        438709                       # TLB misses on read requests
system.cpu.dtb.wrAccesses                        1584                       # TLB accesses on write requests
system.cpu.dtb.wrMisses                             8                       # TLB misses on write requests
system.cpu.fetch.Branches                      502684                       # Number of branches that fetch encountered
system.cpu.fetch.CacheLines                   1001873                       # Number of cache lines fetched
system.cpu.fetch.Cycles                      11107514                       # Number of cycles fetch has run and was not squashing or blocked
system.cpu.fetch.IcacheSquashes                   282                       # Number of outstanding Icache misses that were squashed
system.cpu.fetch.Insts                        6013024                       # Number of instructions fetch has processed
system.cpu.fetch.MiscStallCycles                   13                       # Number of cycles fetch has spent waiting on interrupts, or bad addresses, or out of MSHRs
system.cpu.fetch.PendingQuiesceStallCycles           15                       # Number of stall cycles due to pending quiesce instructions
system.cpu.fetch.PendingTrapStallCycles            65                       # Number of stall cycles due to pending traps
system.cpu.fetch.SquashCycles                     994                       # Number of cycles fetch has spent squashing
system.cpu.fetch.branchRate                  0.041441                       # Number of branch fetches per cycle
system.cpu.fetch.icacheStallCycles            1010729                       # Number of cycles fetch is stalled on an Icache miss
system.cpu.fetch.predictedBranches             500513                       # Number of branches that fetch has predicted taken
system.cpu.fetch.rate                        0.495705                       # Number of inst fetches per cycle
system.cpu.fetch.rateDist::samples           12118833                       # Number of instructions fetched each cycle (Total)
system.cpu.fetch.rateDist::mean              0.786065                       # Number of instructions fetched each cycle (Total)
system.cpu.fetch.rateDist::stdev             2.157757                       # Number of instructions fetched each cycle (Total)
system.cpu.fetch.rateDist::underflows               0      0.00%      0.00% # Number of instructions fetched each cycle (Total)
system.cpu.fetch.rateDist::0                 10073176     83.12%     83.12% # Number of instructions fetched each cycle (Total)
system.cpu.fetch.rateDist::1                   501498      4.14%     87.26% # Number of instructions fetched each cycle (Total)
system.cpu.fetch.rateDist::2                   399313      3.29%     90.55% # Number of instructions fetched each cycle (Total)
system.cpu.fetch.rateDist::3                    64715      0.53%     91.09% # Number of instructions fetched each cycle (Total)
system.cpu.fetch.rateDist::4                    72205      0.60%     91.68% # Number of instructions fetched each cycle (Total)
system.cpu.fetch.rateDist::5                    28905      0.24%     91.92% # Number of instructions fetched each cycle (Total)
system.cpu.fetch.rateDist::6                    99941      0.82%     92.75% # Number of instructions fetched each cycle (Total)
system.cpu.fetch.rateDist::7                    33707      0.28%     93.02% # Number of instructions fetched each cycle (Total)
system.cpu.fetch.rateDist::8                   845373      6.98%    100.00% # Number of instructions fetched each cycle (Total)
system.cpu.fetch.rateDist::overflows                0      0.00%    100.00% # Number of instructions fetched each cycle (Total)
system.cpu.fetch.rateDist::min_value                0                       # Number of instructions fetched each cycle (Total)
system.cpu.fetch.rateDist::max_value                8                       # Number of instructions fetched each cycle (Total)
system.cpu.fetch.rateDist::total             12118833                       # Number of instructions fetched each cycle (Total)
system.cpu.fp_regfile_reads                       531                       # number of floating regfile reads
system.cpu.fp_regfile_writes                      184                       # number of floating regfile writes
system.cpu.idleCycles                           11412                       # Total number of cycles that the CPU has spent unscheduled due to idling
system.cpu.iew.branchMispredicts                  629                       # Number of branch mispredicts detected at execute
system.cpu.iew.exec_branches                   501376                       # Number of branches executed
system.cpu.iew.exec_nop                             0                       # number of nop insts executed
system.cpu.iew.exec_rate                     0.986183                       # Inst execution rate
system.cpu.iew.exec_refs                      2950428                       # number of memory reference insts executed
system.cpu.iew.exec_stores                       1583                       # Number of stores executed
system.cpu.iew.exec_swp                             0                       # number of swp insts executed
system.cpu.iew.iewBlockCycles                    1409                       # Number of cycles IEW is blocking
system.cpu.iew.iewDispLoadInsts                502085                       # Number of dispatched load instructions
system.cpu.iew.iewDispNonSpecInsts                 35                       # Number of dispatched non-speculative instructions
system.cpu.iew.iewDispSquashedInsts                16                       # Number of squashed instructions skipped by dispatch
system.cpu.iew.iewDispStoreInsts                 2046                       # Number of dispatched store instructions
system.cpu.iew.iewDispatchedInsts             9519761                       # Number of instructions dispatched to IQ
system.cpu.iew.iewExecLoadInsts               2948845                       # Number of load instructions executed
system.cpu.iew.iewExecSquashedInsts               863                       # Number of squashed instructions skipped in execute
system.cpu.iew.iewExecutedInsts              11962640                       # Number of executed instructions
system.cpu.iew.iewIQFullEvents                      4                       # Number of times the IQ has become full, causing a stall
system.cpu.iew.iewIdleCycles                        0                       # Number of cycles IEW is idle
system.cpu.iew.iewLSQFullEvents                   800                       # Number of times the LSQ has become full, causing a stall
system.cpu.iew.iewSquashCycles                    497                       # Number of cycles IEW is squashing
system.cpu.iew.iewUnblockCycles                   805                       # Number of cycles IEW is unblocking
system.cpu.iew.lsq.thread0.blockedLoads             0                       # Number of blocked loads due to partial load-store forwarding
system.cpu.iew.lsq.thread0.cacheBlocked        480938                       # Number of times an access to memory failed due to the cache being blocked
system.cpu.iew.lsq.thread0.forwLoads               65                       # Number of loads that had data forwarded from stores
system.cpu.iew.lsq.thread0.ignoredResponses            2                       # Number of memory responses ignored because the instruction is squashed
system.cpu.iew.lsq.thread0.invAddrLoads             0                       # Number of loads ignored due to an invalid address
system.cpu.iew.lsq.thread0.invAddrSwpfs             0                       # Number of software prefetches ignored due to an invalid address
system.cpu.iew.lsq.thread0.memOrderViolation            5                       # Number of memory ordering violations
system.cpu.iew.lsq.thread0.rescheduledLoads            1                       # Number of loads that were rescheduled
system.cpu.iew.lsq.thread0.squashedLoads         1318                       # Number of loads squashed
system.cpu.iew.lsq.thread0.squashedStores         1029                       # Number of stores squashed
system.cpu.iew.memOrderViolationEvents              5                       # Number of memory order violations
system.cpu.iew.predictedNotTakenIncorrect          616                       # Number of branches that were predicted not taken incorrectly
system.cpu.iew.predictedTakenIncorrect             13                       # Number of branches that were predicted taken incorrectly
system.cpu.iew.wb_consumers                  14423734                       # num instructions consuming a value
system.cpu.iew.wb_count                       9514863                       # cumulative count of insts written-back
system.cpu.iew.wb_fanout                     0.600194                       # average fanout of values written-back
system.cpu.iew.wb_producers                   8657033                       # num instructions producing a value
system.cpu.iew.wb_rate                       0.784392                       # insts written-back per cycle
system.cpu.iew.wb_sent                        9515029                       # cumulative count of insts sent to commit
system.cpu.int_regfile_reads                 18914510                       # number of integer regfile reads
system.cpu.int_regfile_writes                 9011668                       # number of integer regfile writes
system.cpu.ipc                               0.494997                       # IPC: Instructions Per Cycle
system.cpu.ipc_total                         0.494997                       # IPC: Total IPC of All Threads
system.cpu.iq.FU_type_0::No_OpClass               263      0.00%      0.00% # Type of FU issued
system.cpu.iq.FU_type_0::IntAlu               9012341     75.33%     75.33% # Type of FU issued
system.cpu.iq.FU_type_0::IntMult                    5      0.00%     75.33% # Type of FU issued
system.cpu.iq.FU_type_0::IntDiv                    22      0.00%     75.33% # Type of FU issued
system.cpu.iq.FU_type_0::FloatAdd                   2      0.00%     75.33% # Type of FU issued
system.cpu.iq.FU_type_0::FloatCmp                   0      0.00%     75.33% # Type of FU issued
system.cpu.iq.FU_type_0::FloatCvt                   0      0.00%     75.33% # Type of FU issued
system.cpu.iq.FU_type_0::FloatMult                  0      0.00%     75.33% # Type of FU issued
system.cpu.iq.FU_type_0::FloatMultAcc               0      0.00%     75.33% # Type of FU issued
system.cpu.iq.FU_type_0::FloatDiv                   0      0.00%     75.33% # Type of FU issued
system.cpu.iq.FU_type_0::FloatMisc                  0      0.00%     75.33% # Type of FU issued
system.cpu.iq.FU_type_0::FloatSqrt                  0      0.00%     75.33% # Type of FU issued
system.cpu.iq.FU_type_0::SimdAdd                    0      0.00%     75.33% # Type of FU issued
system.cpu.iq.FU_type_0::SimdAddAcc                 0      0.00%     75.33% # Type of FU issued
system.cpu.iq.FU_type_0::SimdAlu                   73      0.00%     75.34% # Type of FU issued
system.cpu.iq.FU_type_0::SimdCmp                    0      0.00%     75.34% # Type of FU issued
system.cpu.iq.FU_type_0::SimdCvt                   51      0.00%     75.34% # Type of FU issued
system.cpu.iq.FU_type_0::SimdMisc                  63      0.00%     75.34% # Type of FU issued
system.cpu.iq.FU_type_0::SimdMult                   0      0.00%     75.34% # Type of FU issued
system.cpu.iq.FU_type_0::SimdMultAcc                0      0.00%     75.34% # Type of FU issued
system.cpu.iq.FU_type_0::SimdShift                  0      0.00%     75.34% # Type of FU issued
system.cpu.iq.FU_type_0::SimdShiftAcc               0      0.00%     75.34% # Type of FU issued
system.cpu.iq.FU_type_0::SimdDiv                    0      0.00%     75.34% # Type of FU issued
system.cpu.iq.FU_type_0::SimdSqrt                   0      0.00%     75.34% # Type of FU issued
system.cpu.iq.FU_type_0::SimdFloatAdd               0      0.00%     75.34% # Type of FU issued
system.cpu.iq.FU_type_0::SimdFloatAlu               0      0.00%     75.34% # Type of FU issued
system.cpu.iq.FU_type_0::SimdFloatCmp               0      0.00%     75.34% # Type of FU issued
system.cpu.iq.FU_type_0::SimdFloatCvt               0      0.00%     75.34% # Type of FU issued
system.cpu.iq.FU_type_0::SimdFloatDiv               0      0.00%     75.34% # Type of FU issued
system.cpu.iq.FU_type_0::SimdFloatMisc              0      0.00%     75.34% # Type of FU issued
system.cpu.iq.FU_type_0::SimdFloatMult              0      0.00%     75.34% # Type of FU issued
system.cpu.iq.FU_type_0::SimdFloatMultAcc            0      0.00%     75.34% # Type of FU issued
system.cpu.iq.FU_type_0::SimdFloatSqrt              0      0.00%     75.34% # Type of FU issued
system.cpu.iq.FU_type_0::SimdReduceAdd              0      0.00%     75.34% # Type of FU issued
system.cpu.iq.FU_type_0::SimdReduceAlu              0      0.00%     75.34% # Type of FU issued
system.cpu.iq.FU_type_0::SimdReduceCmp              0      0.00%     75.34% # Type of FU issued
system.cpu.iq.FU_type_0::SimdFloatReduceAdd            0      0.00%     75.34% # Type of FU issued
system.cpu.iq.FU_type_0::SimdFloatReduceCmp            0      0.00%     75.34% # Type of FU issued
system.cpu.iq.FU_type_0::SimdAes                    0      0.00%     75.34% # Type of FU issued
system.cpu.iq.FU_type_0::SimdAesMix                 0      0.00%     75.34% # Type of FU issued
system.cpu.iq.FU_type_0::SimdSha1Hash               0      0.00%     75.34% # Type of FU issued
system.cpu.iq.FU_type_0::SimdSha1Hash2              0      0.00%     75.34% # Type of FU issued
system.cpu.iq.FU_type_0::SimdSha256Hash             0      0.00%     75.34% # Type of FU issued
system.cpu.iq.FU_type_0::SimdSha256Hash2            0      0.00%     75.34% # Type of FU issued
system.cpu.iq.FU_type_0::SimdShaSigma2              0      0.00%     75.34% # Type of FU issued
system.cpu.iq.FU_type_0::SimdShaSigma3              0      0.00%     75.34% # Type of FU issued
system.cpu.iq.FU_type_0::SimdPredAlu                0      0.00%     75.34% # Type of FU issued
system.cpu.iq.FU_type_0::MemRead              2948932     24.65%     99.99% # Type of FU issued
system.cpu.iq.FU_type_0::MemWrite                1522      0.01%    100.00% # Type of FU issued
system.cpu.iq.FU_type_0::FloatMemRead              72      0.00%    100.00% # Type of FU issued
system.cpu.iq.FU_type_0::FloatMemWrite            157      0.00%    100.00% # Type of FU issued
system.cpu.iq.FU_type_0::IprAccess                  0      0.00%    100.00% # Type of FU issued
system.cpu.iq.FU_type_0::InstPrefetch               0      0.00%    100.00% # Type of FU issued
system.cpu.iq.FU_type_0::total               11963503                       # Type of FU issued
system.cpu.iq.fp_alu_accesses                     437                       # Number of floating point alu accesses
system.cpu.iq.fp_inst_queue_reads                 866                       # Number of floating instruction queue reads
system.cpu.iq.fp_inst_queue_wakeup_accesses          388                       # Number of floating instruction queue wakeup accesses
system.cpu.iq.fp_inst_queue_writes                732                       # Number of floating instruction queue writes
system.cpu.iq.fu_busy_cnt                      343347                       # FU busy when requested
system.cpu.iq.fu_busy_rate                   0.028700                       # FU busy rate (busy events/executed inst)
system.cpu.iq.fu_full::No_OpClass                   0      0.00%      0.00% # attempts to use FU when none available
system.cpu.iq.fu_full::IntAlu                    1554      0.45%      0.45% # attempts to use FU when none available
system.cpu.iq.fu_full::IntMult                      0      0.00%      0.45% # attempts to use FU when none available
system.cpu.iq.fu_full::IntDiv                       0      0.00%      0.45% # attempts to use FU when none available
system.cpu.iq.fu_full::FloatAdd                     0      0.00%      0.45% # attempts to use FU when none available
system.cpu.iq.fu_full::FloatCmp                     0      0.00%      0.45% # attempts to use FU when none available
system.cpu.iq.fu_full::FloatCvt                     0      0.00%      0.45% # attempts to use FU when none available
system.cpu.iq.fu_full::FloatMult                    0      0.00%      0.45% # attempts to use FU when none available
system.cpu.iq.fu_full::FloatMultAcc                 0      0.00%      0.45% # attempts to use FU when none available
system.cpu.iq.fu_full::FloatDiv                     0      0.00%      0.45% # attempts to use FU when none available
system.cpu.iq.fu_full::FloatMisc                    0      0.00%      0.45% # attempts to use FU when none available
system.cpu.iq.fu_full::FloatSqrt                    0      0.00%      0.45% # attempts to use FU when none available
system.cpu.iq.fu_full::SimdAdd                      0      0.00%      0.45% # attempts to use FU when none available
system.cpu.iq.fu_full::SimdAddAcc                   0      0.00%      0.45% # attempts to use FU when none available
system.cpu.iq.fu_full::SimdAlu                      3      0.00%      0.45% # attempts to use FU when none available
system.cpu.iq.fu_full::SimdCmp                      0      0.00%      0.45% # attempts to use FU when none available
system.cpu.iq.fu_full::SimdCvt                      0      0.00%      0.45% # attempts to use FU when none available
system.cpu.iq.fu_full::SimdMisc                     0      0.00%      0.45% # attempts to use FU when none available
system.cpu.iq.fu_full::SimdMult                     0      0.00%      0.45% # attempts to use FU when none available
system.cpu.iq.fu_full::SimdMultAcc                  0      0.00%      0.45% # attempts to use FU when none available
system.cpu.iq.fu_full::SimdShift                    0      0.00%      0.45% # attempts to use FU when none available
system.cpu.iq.fu_full::SimdShiftAcc                 0      0.00%      0.45% # attempts to use FU when none available
system.cpu.iq.fu_full::SimdDiv                      0      0.00%      0.45% # attempts to use FU when none available
system.cpu.iq.fu_full::SimdSqrt                     0      0.00%      0.45% # attempts to use FU when none available
system.cpu.iq.fu_full::SimdFloatAdd                 0      0.00%      0.45% # attempts to use FU when none available
system.cpu.iq.fu_full::SimdFloatAlu                 0      0.00%      0.45% # attempts to use FU when none available
system.cpu.iq.fu_full::SimdFloatCmp                 0      0.00%      0.45% # attempts to use FU when none available
system.cpu.iq.fu_full::SimdFloatCvt                 0      0.00%      0.45% # attempts to use FU when none available
system.cpu.iq.fu_full::SimdFloatDiv                 0      0.00%      0.45% # attempts to use FU when none available
system.cpu.iq.fu_full::SimdFloatMisc                0      0.00%      0.45% # attempts to use FU when none available
system.cpu.iq.fu_full::SimdFloatMult                0      0.00%      0.45% # attempts to use FU when none available
system.cpu.iq.fu_full::SimdFloatMultAcc             0      0.00%      0.45% # attempts to use FU when none available
system.cpu.iq.fu_full::SimdFloatSqrt                0      0.00%      0.45% # attempts to use FU when none available
system.cpu.iq.fu_full::SimdReduceAdd                0      0.00%      0.45% # attempts to use FU when none available
system.cpu.iq.fu_full::SimdReduceAlu                0      0.00%      0.45% # attempts to use FU when none available
system.cpu.iq.fu_full::SimdReduceCmp                0      0.00%      0.45% # attempts to use FU when none available
system.cpu.iq.fu_full::SimdFloatReduceAdd            0      0.00%      0.45% # attempts to use FU when none available
system.cpu.iq.fu_full::SimdFloatReduceCmp            0      0.00%      0.45% # attempts to use FU when none available
system.cpu.iq.fu_full::SimdAes                      0      0.00%      0.45% # attempts to use FU when none available
system.cpu.iq.fu_full::SimdAesMix                   0      0.00%      0.45% # attempts to use FU when none available
system.cpu.iq.fu_full::SimdSha1Hash                 0      0.00%      0.45% # attempts to use FU when none available
system.cpu.iq.fu_full::SimdSha1Hash2                0      0.00%      0.45% # attempts to use FU when none available
system.cpu.iq.fu_full::SimdSha256Hash               0      0.00%      0.45% # attempts to use FU when none available
system.cpu.iq.fu_full::SimdSha256Hash2              0      0.00%      0.45% # attempts to use FU when none available
system.cpu.iq.fu_full::SimdShaSigma2                0      0.00%      0.45% # attempts to use FU when none available
system.cpu.iq.fu_full::SimdShaSigma3                0      0.00%      0.45% # attempts to use FU when none available
system.cpu.iq.fu_full::SimdPredAlu                  0      0.00%      0.45% # attempts to use FU when none available
system.cpu.iq.fu_full::MemRead                 341757     99.54%     99.99% # attempts to use FU when none available
system.cpu.iq.fu_full::MemWrite                    27      0.01%    100.00% # attempts to use FU when none available
system.cpu.iq.fu_full::FloatMemRead                 1      0.00%    100.00% # attempts to use FU when none available
system.cpu.iq.fu_full::FloatMemWrite                5      0.00%    100.00% # attempts to use FU when none available
system.cpu.iq.fu_full::IprAccess                    0      0.00%    100.00% # attempts to use FU when none available
system.cpu.iq.fu_full::InstPrefetch                 0      0.00%    100.00% # attempts to use FU when none available
system.cpu.iq.int_alu_accesses               12306150                       # Number of integer alu accesses
system.cpu.iq.int_inst_queue_reads           36388381                       # Number of integer instruction queue reads
system.cpu.iq.int_inst_queue_wakeup_accesses      9514475                       # Number of integer instruction queue wakeup accesses
system.cpu.iq.int_inst_queue_writes           9529841                       # Number of integer instruction queue writes
system.cpu.iq.iqInstsAdded                    9519686                       # Number of instructions added to the IQ (excludes non-spec)
system.cpu.iq.iqInstsIssued                  11963503                       # Number of instructions issued
system.cpu.iq.iqNonSpecInstsAdded                  75                       # Number of non-speculative instructions added to the IQ
system.cpu.iq.iqSquashedInstsExamined           10807                       # Number of squashed instructions iterated over during squash; mainly for profiling
system.cpu.iq.iqSquashedInstsIssued                61                       # Number of squashed instructions issued
system.cpu.iq.iqSquashedNonSpecRemoved             67                       # Number of squashed non-spec instructions that were removed
system.cpu.iq.iqSquashedOperandsExamined        15052                       # Number of squashed operands that are examined and possibly removed from graph
system.cpu.iq.issued_per_cycle::samples      12118833                       # Number of insts issued each cycle
system.cpu.iq.issued_per_cycle::mean         0.987183                       # Number of insts issued each cycle
system.cpu.iq.issued_per_cycle::stdev        1.483391                       # Number of insts issued each cycle
system.cpu.iq.issued_per_cycle::underflows            0      0.00%      0.00% # Number of insts issued each cycle
system.cpu.iq.issued_per_cycle::0             6524031     53.83%     53.83% # Number of insts issued each cycle
system.cpu.iq.issued_per_cycle::1             2992436     24.69%     78.53% # Number of insts issued each cycle
system.cpu.iq.issued_per_cycle::2              859496      7.09%     85.62% # Number of insts issued each cycle
system.cpu.iq.issued_per_cycle::3              482557      3.98%     89.60% # Number of insts issued each cycle
system.cpu.iq.issued_per_cycle::4              718725      5.93%     95.53% # Number of insts issued each cycle
system.cpu.iq.issued_per_cycle::5              403410      3.33%     98.86% # Number of insts issued each cycle
system.cpu.iq.issued_per_cycle::6               84952      0.70%     99.56% # Number of insts issued each cycle
system.cpu.iq.issued_per_cycle::7               23066      0.19%     99.75% # Number of insts issued each cycle
system.cpu.iq.issued_per_cycle::8               30160      0.25%    100.00% # Number of insts issued each cycle
system.cpu.iq.issued_per_cycle::overflows            0      0.00%    100.00% # Number of insts issued each cycle
system.cpu.iq.issued_per_cycle::min_value            0                       # Number of insts issued each cycle
system.cpu.iq.issued_per_cycle::max_value            8                       # Number of insts issued each cycle
system.cpu.iq.issued_per_cycle::total        12118833                       # Number of insts issued each cycle
system.cpu.iq.rate                           0.986254                       # Inst issue rate
system.cpu.iq.vec_alu_accesses                      0                       # Number of vector alu accesses
system.cpu.iq.vec_inst_queue_reads                  0                       # Number of vector instruction queue reads
system.cpu.iq.vec_inst_queue_wakeup_accesses            0                       # Number of vector instruction queue wakeup accesses
system.cpu.iq.vec_inst_queue_writes                 0                       # Number of vector instruction queue writes
system.cpu.itb.rdAccesses                           0                       # TLB accesses on read requests
system.cpu.itb.rdMisses                             0                       # TLB misses on read requests
system.cpu.itb.wrAccesses                     1001886                       # TLB accesses on write requests
system.cpu.itb.wrMisses                            42                       # TLB misses on write requests
system.cpu.memDep0.conflictingLoads                40                       # Number of conflicting loads.
system.cpu.memDep0.conflictingStores               38                       # Number of conflicting stores.
system.cpu.memDep0.insertedLoads               502085                       # Number of loads inserted to the mem dependence unit.
system.cpu.memDep0.insertedStores                2046                       # Number of stores inserted to the mem dependence unit.
system.cpu.misc_regfile_reads                 3954259                       # number of misc regfile reads
system.cpu.misc_regfile_writes                      1                       # number of misc regfile writes
system.cpu.numCycles                         12130245                       # number of cpu cycles simulated
system.cpu.numWorkItemsCompleted                    0                       # number of work items this cpu completed
system.cpu.numWorkItemsStarted                      0                       # number of work items this cpu started
system.cpu.rename.BlockCycles                 9655572                       # Number of cycles rename is blocking
system.cpu.rename.CommittedMaps              18009963                       # Number of HB maps that are committed
system.cpu.rename.IQFullEvents                     30                       # Number of times rename has blocked due to IQ full
system.cpu.rename.IdleCycles                   497629                       # Number of cycles rename is idle
system.cpu.rename.ROBFullEvents                812860                       # Number of times rename has blocked due to ROB full
system.cpu.rename.RenameLookups              20554594                       # Number of register rename lookups that rename has made
system.cpu.rename.RenamedInsts                9522535                       # Number of instructions processed by rename
system.cpu.rename.RenamedOperands            18024469                       # Number of destination operands rename has renamed
system.cpu.rename.RunCycles                    925340                       # Number of cycles rename is running
system.cpu.rename.SQFullEvents                   3636                       # Number of times rename has blocked due to SQ full
system.cpu.rename.SquashCycles                    497                       # Number of cycles rename is squashing
system.cpu.rename.UnblockCycles               1038777                       # Number of cycles rename is unblocking
system.cpu.rename.UndoneMaps                    14506                       # Number of HB maps that are undone due to squashing
system.cpu.rename.fp_rename_lookups               776                       # Number of floating rename lookups
system.cpu.rename.int_rename_lookups         14032353                       # Number of integer rename lookups
system.cpu.rename.serializeStallCycles           1018                       # count of cycles rename stalled for serializing inst
system.cpu.rename.serializingInsts                 22                       # count of serializing insts renamed
system.cpu.rename.skidInsts                   3435195                       # count of insts added to the skid buffer
system.cpu.rename.tempSerializingInsts             17                       # count of temporary serializing insts renamed
system.cpu.rob.rob_reads                     20596642                       # The number of ROB reads
system.cpu.rob.rob_writes                    19041357                       # The number of ROB writes
system.cpu.timesIdled                             165                       # Number of times that the entire CPU went into an idle state and unscheduled itself
system.cpu.workload.numSyscalls                     7                       # Number of system calls
system.l2bus.snoop_filter.hit_multi_requests            1                       # Number of requests hitting in the snoop filter with multiple (>1) holders of the requested data.
system.l2bus.snoop_filter.hit_multi_snoops            0                       # Number of snoops hitting in the snoop filter with multiple (>1) holders of the requested data.
system.l2bus.snoop_filter.hit_single_requests       481850                       # Number of requests hitting in the snoop filter with a single holder of the requested data.
system.l2bus.snoop_filter.hit_single_snoops          294                       # Number of snoops hitting in the snoop filter with a single holder of the requested data.
system.l2bus.snoop_filter.tot_requests         966065                       # Total number of requests made to the snoop filter.
system.l2bus.snoop_filter.tot_snoops              294                       # Total number of snoops made to the snoop filter.
system.membus.snoop_filter.hit_multi_requests            0                       # Number of requests hitting in the snoop filter with multiple (>1) holders of the requested data.
system.membus.snoop_filter.hit_multi_snoops            0                       # Number of snoops hitting in the snoop filter with multiple (>1) holders of the requested data.
system.membus.snoop_filter.hit_single_requests       337220                       # Number of requests hitting in the snoop filter with a single holder of the requested data.
system.membus.snoop_filter.hit_single_snoops            0                       # Number of snoops hitting in the snoop filter with a single holder of the requested data.
system.membus.snoop_filter.tot_requests        691119                       # Total number of requests made to the snoop filter.
system.membus.snoop_filter.tot_snoops               0                       # Total number of snoops made to the snoop filter.
system.membus.pwrStateResidencyTicks::UNDEFINED  12130244000                       # Cumulative time (in ticks) in various power states
system.membus.trans_dist::ReadResp             353806                       # Transaction distribution
system.membus.trans_dist::WritebackDirty          113                       # Transaction distribution
system.membus.trans_dist::CleanEvict           337107                       # Transaction distribution
system.membus.trans_dist::ReadExReq                92                       # Transaction distribution
system.membus.trans_dist::ReadExResp               92                       # Transaction distribution
system.membus.trans_dist::ReadSharedReq        353807                       # Transaction distribution
system.membus.pkt_count_system.l2cache.mem_side::system.mem_ctrl.port      1045017                       # Packet count per connected master and slave (bytes)
system.membus.pkt_count_system.l2cache.mem_side::total      1045017                       # Packet count per connected master and slave (bytes)
system.membus.pkt_count::total                1045017                       # Packet count per connected master and slave (bytes)
system.membus.pkt_size_system.l2cache.mem_side::system.mem_ctrl.port     22656704                       # Cumulative packet size per connected master and slave (bytes)
system.membus.pkt_size_system.l2cache.mem_side::total     22656704                       # Cumulative packet size per connected master and slave (bytes)
system.membus.pkt_size::total                22656704                       # Cumulative packet size per connected master and slave (bytes)
system.membus.snoops                                0                       # Total snoops (count)
system.membus.snoopTraffic                          0                       # Total snoop traffic (bytes)
system.membus.snoop_fanout::samples            353899                       # Request fanout histogram
system.membus.snoop_fanout::mean                    0                       # Request fanout histogram
system.membus.snoop_fanout::stdev                   0                       # Request fanout histogram
system.membus.snoop_fanout::underflows              0      0.00%      0.00% # Request fanout histogram
system.membus.snoop_fanout::0                  353899    100.00%    100.00% # Request fanout histogram
system.membus.snoop_fanout::1                       0      0.00%    100.00% # Request fanout histogram
system.membus.snoop_fanout::overflows               0      0.00%    100.00% # Request fanout histogram
system.membus.snoop_fanout::min_value               0                       # Request fanout histogram
system.membus.snoop_fanout::max_value               0                       # Request fanout histogram
system.membus.snoop_fanout::total              353899                       # Request fanout histogram
system.membus.reqLayer2.occupancy           691571000                       # Layer occupancy (ticks)
system.membus.reqLayer2.utilization               5.7                       # Layer utilization (%)
system.membus.respLayer0.occupancy         1987994000                       # Layer occupancy (ticks)
system.membus.respLayer0.utilization             16.4                       # Layer utilization (%)
system.l2bus.pwrStateResidencyTicks::UNDEFINED  12130244000                       # Cumulative time (in ticks) in various power states
system.l2bus.trans_dist::ReadResp              484121                       # Transaction distribution
system.l2bus.trans_dist::WritebackDirty           226                       # Transaction distribution
system.l2bus.trans_dist::CleanEvict            819138                       # Transaction distribution
system.l2bus.trans_dist::ReadExReq                 92                       # Transaction distribution
system.l2bus.trans_dist::ReadExResp                92                       # Transaction distribution
system.l2bus.trans_dist::ReadSharedReq         484123                       # Transaction distribution
system.l2bus.pkt_count_system.cpu.icache.mem_side::system.l2cache.cpu_side          631                       # Packet count per connected master and slave (bytes)
system.l2bus.pkt_count_system.cpu.dcache.mem_side::system.l2cache.cpu_side      1449647                       # Packet count per connected master and slave (bytes)
system.l2bus.pkt_count::total                 1450278                       # Packet count per connected master and slave (bytes)
system.l2bus.pkt_size_system.cpu.icache.mem_side::system.l2cache.cpu_side        20160                       # Cumulative packet size per connected master and slave (bytes)
system.l2bus.pkt_size_system.cpu.dcache.mem_side::system.l2cache.cpu_side     30976704                       # Cumulative packet size per connected master and slave (bytes)
system.l2bus.pkt_size::total                 30996864                       # Cumulative packet size per connected master and slave (bytes)
system.l2bus.snoops                            337514                       # Total snoops (count)
system.l2bus.snoopTraffic                        7232                       # Total snoop traffic (bytes)
system.l2bus.snoop_fanout::samples             821729                       # Request fanout histogram
system.l2bus.snoop_fanout::mean              0.000359                       # Request fanout histogram
system.l2bus.snoop_fanout::stdev             0.018944                       # Request fanout histogram
system.l2bus.snoop_fanout::underflows               0      0.00%      0.00% # Request fanout histogram
system.l2bus.snoop_fanout::0                   821434     99.96%     99.96% # Request fanout histogram
system.l2bus.snoop_fanout::1                      295      0.04%    100.00% # Request fanout histogram
system.l2bus.snoop_fanout::2                        0      0.00%    100.00% # Request fanout histogram
system.l2bus.snoop_fanout::overflows                0      0.00%    100.00% # Request fanout histogram
system.l2bus.snoop_fanout::min_value                0                       # Request fanout histogram
system.l2bus.snoop_fanout::max_value                1                       # Request fanout histogram
system.l2bus.snoop_fanout::total               821729                       # Request fanout histogram
system.l2bus.respLayer1.occupancy          1451694000                       # Layer occupancy (ticks)
system.l2bus.respLayer1.utilization              12.0                       # Layer utilization (%)
system.l2bus.reqLayer0.occupancy            966291000                       # Layer occupancy (ticks)
system.l2bus.reqLayer0.utilization                8.0                       # Layer utilization (%)
system.l2bus.respLayer0.occupancy              945000                       # Layer occupancy (ticks)
system.l2bus.respLayer0.utilization               0.0                       # Layer utilization (%)
system.clk_domain.clock                          1000                       # Clock period in ticks
system.clk_domain.voltage_domain.voltage            1                       # Voltage in Volts
system.cpu.pwrStateResidencyTicks::ON     12130244000                       # Cumulative time (in ticks) in various power states
system.cpu.icache.pwrStateResidencyTicks::UNDEFINED  12130244000                       # Cumulative time (in ticks) in various power states
system.cpu.icache.demand_hits::.cpu.inst      1001451                       # number of demand (read+write) hits
system.cpu.icache.demand_hits::total          1001451                       # number of demand (read+write) hits
system.cpu.icache.overall_hits::.cpu.inst      1001451                       # number of overall hits
system.cpu.icache.overall_hits::total         1001451                       # number of overall hits
system.cpu.icache.demand_misses::.cpu.inst          422                       # number of demand (read+write) misses
system.cpu.icache.demand_misses::total            422                       # number of demand (read+write) misses
system.cpu.icache.overall_misses::.cpu.inst          422                       # number of overall misses
system.cpu.icache.overall_misses::total           422                       # number of overall misses
system.cpu.icache.demand_miss_latency::.cpu.inst     40214000                       # number of demand (read+write) miss cycles
system.cpu.icache.demand_miss_latency::total     40214000                       # number of demand (read+write) miss cycles
system.cpu.icache.overall_miss_latency::.cpu.inst     40214000                       # number of overall miss cycles
system.cpu.icache.overall_miss_latency::total     40214000                       # number of overall miss cycles
system.cpu.icache.demand_accesses::.cpu.inst      1001873                       # number of demand (read+write) accesses
system.cpu.icache.demand_accesses::total      1001873                       # number of demand (read+write) accesses
system.cpu.icache.overall_accesses::.cpu.inst      1001873                       # number of overall (read+write) accesses
system.cpu.icache.overall_accesses::total      1001873                       # number of overall (read+write) accesses
system.cpu.icache.demand_miss_rate::.cpu.inst     0.000421                       # miss rate for demand accesses
system.cpu.icache.demand_miss_rate::total     0.000421                       # miss rate for demand accesses
system.cpu.icache.overall_miss_rate::.cpu.inst     0.000421                       # miss rate for overall accesses
system.cpu.icache.overall_miss_rate::total     0.000421                       # miss rate for overall accesses
system.cpu.icache.demand_avg_miss_latency::.cpu.inst 95293.838863                       # average overall miss latency
system.cpu.icache.demand_avg_miss_latency::total 95293.838863                       # average overall miss latency
system.cpu.icache.overall_avg_miss_latency::.cpu.inst 95293.838863                       # average overall miss latency
system.cpu.icache.overall_avg_miss_latency::total 95293.838863                       # average overall miss latency
system.cpu.icache.blocked_cycles::no_mshrs          117                       # number of cycles access was blocked
system.cpu.icache.blocked_cycles::no_targets            0                       # number of cycles access was blocked
system.cpu.icache.blocked::no_mshrs                 4                       # number of cycles access was blocked
system.cpu.icache.blocked::no_targets               0                       # number of cycles access was blocked
system.cpu.icache.avg_blocked_cycles::no_mshrs    29.250000                       # average number of cycles each access was blocked
system.cpu.icache.avg_blocked_cycles::no_targets          nan                       # average number of cycles each access was blocked
system.cpu.icache.demand_mshr_hits::.cpu.inst          106                       # number of demand (read+write) MSHR hits
system.cpu.icache.demand_mshr_hits::total          106                       # number of demand (read+write) MSHR hits
system.cpu.icache.overall_mshr_hits::.cpu.inst          106                       # number of overall MSHR hits
system.cpu.icache.overall_mshr_hits::total          106                       # number of overall MSHR hits
system.cpu.icache.demand_mshr_misses::.cpu.inst          316                       # number of demand (read+write) MSHR misses
system.cpu.icache.demand_mshr_misses::total          316                       # number of demand (read+write) MSHR misses
system.cpu.icache.overall_mshr_misses::.cpu.inst          316                       # number of overall MSHR misses
system.cpu.icache.overall_mshr_misses::total          316                       # number of overall MSHR misses
system.cpu.icache.demand_mshr_miss_latency::.cpu.inst     31962000                       # number of demand (read+write) MSHR miss cycles
system.cpu.icache.demand_mshr_miss_latency::total     31962000                       # number of demand (read+write) MSHR miss cycles
system.cpu.icache.overall_mshr_miss_latency::.cpu.inst     31962000                       # number of overall MSHR miss cycles
system.cpu.icache.overall_mshr_miss_latency::total     31962000                       # number of overall MSHR miss cycles
system.cpu.icache.demand_mshr_miss_rate::.cpu.inst     0.000315                       # mshr miss rate for demand accesses
system.cpu.icache.demand_mshr_miss_rate::total     0.000315                       # mshr miss rate for demand accesses
system.cpu.icache.overall_mshr_miss_rate::.cpu.inst     0.000315                       # mshr miss rate for overall accesses
system.cpu.icache.overall_mshr_miss_rate::total     0.000315                       # mshr miss rate for overall accesses
system.cpu.icache.demand_avg_mshr_miss_latency::.cpu.inst 101145.569620                       # average overall mshr miss latency
system.cpu.icache.demand_avg_mshr_miss_latency::total 101145.569620                       # average overall mshr miss latency
system.cpu.icache.overall_avg_mshr_miss_latency::.cpu.inst 101145.569620                       # average overall mshr miss latency
system.cpu.icache.overall_avg_mshr_miss_latency::total 101145.569620                       # average overall mshr miss latency
system.cpu.icache.replacements                      0                       # number of replacements
system.cpu.icache.ReadReq_hits::.cpu.inst      1001451                       # number of ReadReq hits
system.cpu.icache.ReadReq_hits::total         1001451                       # number of ReadReq hits
system.cpu.icache.ReadReq_misses::.cpu.inst          422                       # number of ReadReq misses
system.cpu.icache.ReadReq_misses::total           422                       # number of ReadReq misses
system.cpu.icache.ReadReq_miss_latency::.cpu.inst     40214000                       # number of ReadReq miss cycles
system.cpu.icache.ReadReq_miss_latency::total     40214000                       # number of ReadReq miss cycles
system.cpu.icache.ReadReq_accesses::.cpu.inst      1001873                       # number of ReadReq accesses(hits+misses)
system.cpu.icache.ReadReq_accesses::total      1001873                       # number of ReadReq accesses(hits+misses)
system.cpu.icache.ReadReq_miss_rate::.cpu.inst     0.000421                       # miss rate for ReadReq accesses
system.cpu.icache.ReadReq_miss_rate::total     0.000421                       # miss rate for ReadReq accesses
system.cpu.icache.ReadReq_avg_miss_latency::.cpu.inst 95293.838863                       # average ReadReq miss latency
system.cpu.icache.ReadReq_avg_miss_latency::total 95293.838863                       # average ReadReq miss latency
system.cpu.icache.ReadReq_mshr_hits::.cpu.inst          106                       # number of ReadReq MSHR hits
system.cpu.icache.ReadReq_mshr_hits::total          106                       # number of ReadReq MSHR hits
system.cpu.icache.ReadReq_mshr_misses::.cpu.inst          316                       # number of ReadReq MSHR misses
system.cpu.icache.ReadReq_mshr_misses::total          316                       # number of ReadReq MSHR misses
system.cpu.icache.ReadReq_mshr_miss_latency::.cpu.inst     31962000                       # number of ReadReq MSHR miss cycles
system.cpu.icache.ReadReq_mshr_miss_latency::total     31962000                       # number of ReadReq MSHR miss cycles
system.cpu.icache.ReadReq_mshr_miss_rate::.cpu.inst     0.000315                       # mshr miss rate for ReadReq accesses
system.cpu.icache.ReadReq_mshr_miss_rate::total     0.000315                       # mshr miss rate for ReadReq accesses
system.cpu.icache.ReadReq_avg_mshr_miss_latency::.cpu.inst 101145.569620                       # average ReadReq mshr miss latency
system.cpu.icache.ReadReq_avg_mshr_miss_latency::total 101145.569620                       # average ReadReq mshr miss latency
system.cpu.icache.tags.pwrStateResidencyTicks::UNDEFINED  12130244000                       # Cumulative time (in ticks) in various power states
system.cpu.icache.tags.tagsinuse           293.628186                       # Cycle average of tags in use
system.cpu.icache.tags.total_refs             1001766                       # Total number of references to valid blocks.
system.cpu.icache.tags.sampled_refs               315                       # Sample count of references to valid blocks.
system.cpu.icache.tags.avg_refs           3180.209524                       # Average number of references to valid blocks.
system.cpu.icache.tags.warmup_cycle            107000                       # Cycle when the warmup percentage was hit.
system.cpu.icache.tags.occ_blocks::.cpu.inst   293.628186                       # Average occupied blocks per requestor
system.cpu.icache.tags.occ_percent::.cpu.inst     0.143373                       # Average percentage of cache occupancy
system.cpu.icache.tags.occ_percent::total     0.143373                       # Average percentage of cache occupancy
system.cpu.icache.tags.occ_task_id_blocks::1024          315                       # Occupied blocks per task id
system.cpu.icache.tags.age_task_id_blocks_1024::0           21                       # Occupied blocks per task id
system.cpu.icache.tags.age_task_id_blocks_1024::4          294                       # Occupied blocks per task id
system.cpu.icache.tags.occ_task_id_percent::1024     0.153809                       # Percentage of cache occupancy per task id
system.cpu.icache.tags.tag_accesses           2004061                       # Number of tag accesses
system.cpu.icache.tags.data_accesses          2004061                       # Number of data accesses
system.cpu.dtb.walker.pwrStateResidencyTicks::UNDEFINED  12130244000                       # Cumulative time (in ticks) in various power states
system.cpu.interrupts.clk_domain.clock          16000                       # Clock period in ticks
system.cpu.itb.walker.pwrStateResidencyTicks::UNDEFINED  12130244000                       # Cumulative time (in ticks) in various power states
system.cpu.dcache.pwrStateResidencyTicks::UNDEFINED  12130244000                       # Cumulative time (in ticks) in various power states
system.cpu.dcache.demand_hits::.cpu.data        18363                       # number of demand (read+write) hits
system.cpu.dcache.demand_hits::total            18363                       # number of demand (read+write) hits
system.cpu.dcache.overall_hits::.cpu.data        18363                       # number of overall hits
system.cpu.dcache.overall_hits::total           18363                       # number of overall hits
system.cpu.dcache.demand_misses::.cpu.data       484023                       # number of demand (read+write) misses
system.cpu.dcache.demand_misses::total         484023                       # number of demand (read+write) misses
system.cpu.dcache.overall_misses::.cpu.data       484023                       # number of overall misses
system.cpu.dcache.overall_misses::total        484023                       # number of overall misses
system.cpu.dcache.demand_miss_latency::.cpu.data  48424140000                       # number of demand (read+write) miss cycles
system.cpu.dcache.demand_miss_latency::total  48424140000                       # number of demand (read+write) miss cycles
system.cpu.dcache.overall_miss_latency::.cpu.data  48424140000                       # number of overall miss cycles
system.cpu.dcache.overall_miss_latency::total  48424140000                       # number of overall miss cycles
system.cpu.dcache.demand_accesses::.cpu.data       502386                       # number of demand (read+write) accesses
system.cpu.dcache.demand_accesses::total       502386                       # number of demand (read+write) accesses
system.cpu.dcache.overall_accesses::.cpu.data       502386                       # number of overall (read+write) accesses
system.cpu.dcache.overall_accesses::total       502386                       # number of overall (read+write) accesses
system.cpu.dcache.demand_miss_rate::.cpu.data     0.963448                       # miss rate for demand accesses
system.cpu.dcache.demand_miss_rate::total     0.963448                       # miss rate for demand accesses
system.cpu.dcache.overall_miss_rate::.cpu.data     0.963448                       # miss rate for overall accesses
system.cpu.dcache.overall_miss_rate::total     0.963448                       # miss rate for overall accesses
system.cpu.dcache.demand_avg_miss_latency::.cpu.data 100045.121823                       # average overall miss latency
system.cpu.dcache.demand_avg_miss_latency::total 100045.121823                       # average overall miss latency
system.cpu.dcache.overall_avg_miss_latency::.cpu.data 100045.121823                       # average overall miss latency
system.cpu.dcache.overall_avg_miss_latency::total 100045.121823                       # average overall miss latency
system.cpu.dcache.blocked_cycles::no_mshrs     11140795                       # number of cycles access was blocked
system.cpu.dcache.blocked_cycles::no_targets            0                       # number of cycles access was blocked
system.cpu.dcache.blocked::no_mshrs            482970                       # number of cycles access was blocked
system.cpu.dcache.blocked::no_targets               0                       # number of cycles access was blocked
system.cpu.dcache.avg_blocked_cycles::no_mshrs    23.067261                       # average number of cycles each access was blocked
system.cpu.dcache.avg_blocked_cycles::no_targets          nan                       # average number of cycles each access was blocked
system.cpu.dcache.writebacks::.writebacks          113                       # number of writebacks
system.cpu.dcache.writebacks::total               113                       # number of writebacks
system.cpu.dcache.demand_mshr_hits::.cpu.data          124                       # number of demand (read+write) MSHR hits
system.cpu.dcache.demand_mshr_hits::total          124                       # number of demand (read+write) MSHR hits
system.cpu.dcache.overall_mshr_hits::.cpu.data          124                       # number of overall MSHR hits
system.cpu.dcache.overall_mshr_hits::total          124                       # number of overall MSHR hits
system.cpu.dcache.demand_mshr_misses::.cpu.data       483899                       # number of demand (read+write) MSHR misses
system.cpu.dcache.demand_mshr_misses::total       483899                       # number of demand (read+write) MSHR misses
system.cpu.dcache.overall_mshr_misses::.cpu.data       483899                       # number of overall MSHR misses
system.cpu.dcache.overall_mshr_misses::total       483899                       # number of overall MSHR misses
system.cpu.dcache.demand_mshr_miss_latency::.cpu.data  47447690000                       # number of demand (read+write) MSHR miss cycles
system.cpu.dcache.demand_mshr_miss_latency::total  47447690000                       # number of demand (read+write) MSHR miss cycles
system.cpu.dcache.overall_mshr_miss_latency::.cpu.data  47447690000                       # number of overall MSHR miss cycles
system.cpu.dcache.overall_mshr_miss_latency::total  47447690000                       # number of overall MSHR miss cycles
system.cpu.dcache.demand_mshr_miss_rate::.cpu.data     0.963202                       # mshr miss rate for demand accesses
system.cpu.dcache.demand_mshr_miss_rate::total     0.963202                       # mshr miss rate for demand accesses
system.cpu.dcache.overall_mshr_miss_rate::.cpu.data     0.963202                       # mshr miss rate for overall accesses
system.cpu.dcache.overall_mshr_miss_rate::total     0.963202                       # mshr miss rate for overall accesses
system.cpu.dcache.demand_avg_mshr_miss_latency::.cpu.data 98052.878803                       # average overall mshr miss latency
system.cpu.dcache.demand_avg_mshr_miss_latency::total 98052.878803                       # average overall mshr miss latency
system.cpu.dcache.overall_avg_mshr_miss_latency::.cpu.data 98052.878803                       # average overall mshr miss latency
system.cpu.dcache.overall_avg_mshr_miss_latency::total 98052.878803                       # average overall mshr miss latency
system.cpu.dcache.replacements                 481850                       # number of replacements
system.cpu.dcache.ReadReq_hits::.cpu.data        17438                       # number of ReadReq hits
system.cpu.dcache.ReadReq_hits::total           17438                       # number of ReadReq hits
system.cpu.dcache.ReadReq_misses::.cpu.data       483930                       # number of ReadReq misses
system.cpu.dcache.ReadReq_misses::total        483930                       # number of ReadReq misses
system.cpu.dcache.ReadReq_miss_latency::.cpu.data  48413906000                       # number of ReadReq miss cycles
system.cpu.dcache.ReadReq_miss_latency::total  48413906000                       # number of ReadReq miss cycles
system.cpu.dcache.ReadReq_accesses::.cpu.data       501368                       # number of ReadReq accesses(hits+misses)
system.cpu.dcache.ReadReq_accesses::total       501368                       # number of ReadReq accesses(hits+misses)
system.cpu.dcache.ReadReq_miss_rate::.cpu.data     0.965219                       # miss rate for ReadReq accesses
system.cpu.dcache.ReadReq_miss_rate::total     0.965219                       # miss rate for ReadReq accesses
system.cpu.dcache.ReadReq_avg_miss_latency::.cpu.data 100043.200463                       # average ReadReq miss latency
system.cpu.dcache.ReadReq_avg_miss_latency::total 100043.200463                       # average ReadReq miss latency
system.cpu.dcache.ReadReq_mshr_hits::.cpu.data          123                       # number of ReadReq MSHR hits
system.cpu.dcache.ReadReq_mshr_hits::total          123                       # number of ReadReq MSHR hits
system.cpu.dcache.ReadReq_mshr_misses::.cpu.data       483807                       # number of ReadReq MSHR misses
system.cpu.dcache.ReadReq_mshr_misses::total       483807                       # number of ReadReq MSHR misses
system.cpu.dcache.ReadReq_mshr_miss_latency::.cpu.data  47437722000                       # number of ReadReq MSHR miss cycles
system.cpu.dcache.ReadReq_mshr_miss_latency::total  47437722000                       # number of ReadReq MSHR miss cycles
system.cpu.dcache.ReadReq_mshr_miss_rate::.cpu.data     0.964974                       # mshr miss rate for ReadReq accesses
system.cpu.dcache.ReadReq_mshr_miss_rate::total     0.964974                       # mshr miss rate for ReadReq accesses
system.cpu.dcache.ReadReq_avg_mshr_miss_latency::.cpu.data 98050.921132                       # average ReadReq mshr miss latency
system.cpu.dcache.ReadReq_avg_mshr_miss_latency::total 98050.921132                       # average ReadReq mshr miss latency
system.cpu.dcache.WriteReq_hits::.cpu.data          925                       # number of WriteReq hits
system.cpu.dcache.WriteReq_hits::total            925                       # number of WriteReq hits
system.cpu.dcache.WriteReq_misses::.cpu.data           93                       # number of WriteReq misses
system.cpu.dcache.WriteReq_misses::total           93                       # number of WriteReq misses
system.cpu.dcache.WriteReq_miss_latency::.cpu.data     10234000                       # number of WriteReq miss cycles
system.cpu.dcache.WriteReq_miss_latency::total     10234000                       # number of WriteReq miss cycles
system.cpu.dcache.WriteReq_accesses::.cpu.data         1018                       # number of WriteReq accesses(hits+misses)
system.cpu.dcache.WriteReq_accesses::total         1018                       # number of WriteReq accesses(hits+misses)
system.cpu.dcache.WriteReq_miss_rate::.cpu.data     0.091356                       # miss rate for WriteReq accesses
system.cpu.dcache.WriteReq_miss_rate::total     0.091356                       # miss rate for WriteReq accesses
system.cpu.dcache.WriteReq_avg_miss_latency::.cpu.data 110043.010753                       # average WriteReq miss latency
system.cpu.dcache.WriteReq_avg_miss_latency::total 110043.010753                       # average WriteReq miss latency
system.cpu.dcache.WriteReq_mshr_hits::.cpu.data            1                       # number of WriteReq MSHR hits
system.cpu.dcache.WriteReq_mshr_hits::total            1                       # number of WriteReq MSHR hits
system.cpu.dcache.WriteReq_mshr_misses::.cpu.data           92                       # number of WriteReq MSHR misses
system.cpu.dcache.WriteReq_mshr_misses::total           92                       # number of WriteReq MSHR misses
system.cpu.dcache.WriteReq_mshr_miss_latency::.cpu.data      9968000                       # number of WriteReq MSHR miss cycles
system.cpu.dcache.WriteReq_mshr_miss_latency::total      9968000                       # number of WriteReq MSHR miss cycles
system.cpu.dcache.WriteReq_mshr_miss_rate::.cpu.data     0.090373                       # mshr miss rate for WriteReq accesses
system.cpu.dcache.WriteReq_mshr_miss_rate::total     0.090373                       # mshr miss rate for WriteReq accesses
system.cpu.dcache.WriteReq_avg_mshr_miss_latency::.cpu.data 108347.826087                       # average WriteReq mshr miss latency
system.cpu.dcache.WriteReq_avg_mshr_miss_latency::total 108347.826087                       # average WriteReq mshr miss latency
system.cpu.dcache.tags.pwrStateResidencyTicks::UNDEFINED  12130244000                       # Cumulative time (in ticks) in various power states
system.cpu.dcache.tags.tagsinuse          2035.926041                       # Cycle average of tags in use
system.cpu.dcache.tags.total_refs              502261                       # Total number of references to valid blocks.
system.cpu.dcache.tags.sampled_refs            483898                       # Sample count of references to valid blocks.
system.cpu.dcache.tags.avg_refs              1.037948                       # Average number of references to valid blocks.
system.cpu.dcache.tags.warmup_cycle            236000                       # Cycle when the warmup percentage was hit.
system.cpu.dcache.tags.occ_blocks::.cpu.data  2035.926041                       # Average occupied blocks per requestor
system.cpu.dcache.tags.occ_percent::.cpu.data     0.994105                       # Average percentage of cache occupancy
system.cpu.dcache.tags.occ_percent::total     0.994105                       # Average percentage of cache occupancy
system.cpu.dcache.tags.occ_task_id_blocks::1024         2048                       # Occupied blocks per task id
system.cpu.dcache.tags.age_task_id_blocks_1024::0          346                       # Occupied blocks per task id
system.cpu.dcache.tags.age_task_id_blocks_1024::1         1590                       # Occupied blocks per task id
system.cpu.dcache.tags.age_task_id_blocks_1024::2          112                       # Occupied blocks per task id
system.cpu.dcache.tags.occ_task_id_percent::1024            1                       # Percentage of cache occupancy per task id
system.cpu.dcache.tags.tag_accesses           1488670                       # Number of tag accesses
system.cpu.dcache.tags.data_accesses          1488670                       # Number of data accesses
system.l2cache.pwrStateResidencyTicks::UNDEFINED  12130244000                       # Cumulative time (in ticks) in various power states
system.l2cache.demand_hits::.cpu.inst               1                       # number of demand (read+write) hits
system.l2cache.demand_hits::.cpu.data          130314                       # number of demand (read+write) hits
system.l2cache.demand_hits::total              130315                       # number of demand (read+write) hits
system.l2cache.overall_hits::.cpu.inst              1                       # number of overall hits
system.l2cache.overall_hits::.cpu.data         130314                       # number of overall hits
system.l2cache.overall_hits::total             130315                       # number of overall hits
system.l2cache.demand_misses::.cpu.inst           315                       # number of demand (read+write) misses
system.l2cache.demand_misses::.cpu.data        353585                       # number of demand (read+write) misses
system.l2cache.demand_misses::total            353900                       # number of demand (read+write) misses
system.l2cache.overall_misses::.cpu.inst          315                       # number of overall misses
system.l2cache.overall_misses::.cpu.data       353585                       # number of overall misses
system.l2cache.overall_misses::total           353900                       # number of overall misses
system.l2cache.demand_miss_latency::.cpu.inst     30994000                       # number of demand (read+write) miss cycles
system.l2cache.demand_miss_latency::.cpu.data  43240340000                       # number of demand (read+write) miss cycles
system.l2cache.demand_miss_latency::total  43271334000                       # number of demand (read+write) miss cycles
system.l2cache.overall_miss_latency::.cpu.inst     30994000                       # number of overall miss cycles
system.l2cache.overall_miss_latency::.cpu.data  43240340000                       # number of overall miss cycles
system.l2cache.overall_miss_latency::total  43271334000                       # number of overall miss cycles
system.l2cache.demand_accesses::.cpu.inst          316                       # number of demand (read+write) accesses
system.l2cache.demand_accesses::.cpu.data       483899                       # number of demand (read+write) accesses
[...]
system.mem_ctrl.rdQLenPdf::30                       0                       # What read queue length does an incoming req see
system.mem_ctrl.rdQLenPdf::31                       0                       # What read queue length does an incoming req see
system.mem_ctrl.wrQLenPdf::0                        1                       # What write queue length does an incoming req see
system.mem_ctrl.wrQLenPdf::1                        1                       # What write queue length does an incoming req see
system.mem_ctrl.wrQLenPdf::2                        1                       # What write queue length does an incoming req see
system.mem_ctrl.wrQLenPdf::3                        1                       # What write queue length does an incoming req see
system.mem_ctrl.wrQLenPdf::4                        1                       # What write queue length does an incoming req see
system.mem_ctrl.wrQLenPdf::5                        1                       # What write queue length does an incoming req see
system.mem_ctrl.wrQLenPdf::6                        1                       # What write queue length does an incoming req see
system.mem_ctrl.wrQLenPdf::7                        1                       # What write queue length does an incoming req see
system.mem_ctrl.wrQLenPdf::8                        1                       # What write queue length does an incoming req see
system.mem_ctrl.wrQLenPdf::9                        1                       # What write queue length does an incoming req see
system.mem_ctrl.wrQLenPdf::10                       1                       # What write queue length does an incoming req see
system.mem_ctrl.wrQLenPdf::11                       1                       # What write queue length does an incoming req see
system.mem_ctrl.wrQLenPdf::12                       1                       # What write queue length does an incoming req see
system.mem_ctrl.wrQLenPdf::13                       1                       # What write queue length does an incoming req see
system.mem_ctrl.wrQLenPdf::14                       1                       # What write queue length does an incoming req see
system.mem_ctrl.wrQLenPdf::15                       1                       # What write queue length does an incoming req see
system.mem_ctrl.wrQLenPdf::16                       1                       # What write queue length does an incoming req see
system.mem_ctrl.wrQLenPdf::17                       6                       # What write queue length does an incoming req see
system.mem_ctrl.wrQLenPdf::18                       6                       # What write queue length does an incoming req see
system.mem_ctrl.wrQLenPdf::19                       6                       # What write queue length does an incoming req see
system.mem_ctrl.wrQLenPdf::20                       6                       # What write queue length does an incoming req see
system.mem_ctrl.wrQLenPdf::21                       6                       # What write queue length does an incoming req see
system.mem_ctrl.wrQLenPdf::22                       6                       # What write queue length does an incoming req see
system.mem_ctrl.wrQLenPdf::23                       6                       # What write queue length does an incoming req see
system.mem_ctrl.wrQLenPdf::24                       6                       # What write queue length does an incoming req see
system.mem_ctrl.wrQLenPdf::25                       6                       # What write queue length does an incoming req see
system.mem_ctrl.wrQLenPdf::26                       6                       # What write queue length does an incoming req see
system.mem_ctrl.wrQLenPdf::27                       6                       # What write queue length does an incoming req see
system.mem_ctrl.wrQLenPdf::28                       6                       # What write queue length does an incoming req see
system.mem_ctrl.wrQLenPdf::29                       6                       # What write queue length does an incoming req see
system.mem_ctrl.wrQLenPdf::30                       6                       # What write queue length does an incoming req see
system.mem_ctrl.wrQLenPdf::31                       6                       # What write queue length does an incoming req see
system.mem_ctrl.wrQLenPdf::32                       6                       # What write queue length does an incoming req see
system.mem_ctrl.wrQLenPdf::33                       0                       # What write queue length does an incoming req see
system.mem_ctrl.wrQLenPdf::34                       0                       # What write queue length does an incoming req see
system.mem_ctrl.wrQLenPdf::35                       0                       # What write queue length does an incoming req see
system.mem_ctrl.wrQLenPdf::36                       0                       # What write queue length does an incoming req see
system.mem_ctrl.wrQLenPdf::37                       0                       # What write queue length does an incoming req see
system.mem_ctrl.wrQLenPdf::38                       0                       # What write queue length does an incoming req see
system.mem_ctrl.wrQLenPdf::39                       0                       # What write queue length does an incoming req see
system.mem_ctrl.wrQLenPdf::40                       0                       # What write queue length does an incoming req see
system.mem_ctrl.wrQLenPdf::41                       0                       # What write queue length does an incoming req see
system.mem_ctrl.wrQLenPdf::42                       0                       # What write queue length does an incoming req see
system.mem_ctrl.wrQLenPdf::43                       0                       # What write queue length does an incoming req see
system.mem_ctrl.wrQLenPdf::44                       0                       # What write queue length does an incoming req see
system.mem_ctrl.wrQLenPdf::45                       0                       # What write queue length does an incoming req see
system.mem_ctrl.wrQLenPdf::46                       0                       # What write queue length does an incoming req see
system.mem_ctrl.wrQLenPdf::47                       0                       # What write queue length does an incoming req see
system.mem_ctrl.wrQLenPdf::48                       0                       # What write queue length does an incoming req see
system.mem_ctrl.wrQLenPdf::49                       0                       # What write queue length does an incoming req see
system.mem_ctrl.wrQLenPdf::50                       0                       # What write queue length does an incoming req see
system.mem_ctrl.wrQLenPdf::51                       0                       # What write queue length does an incoming req see
system.mem_ctrl.wrQLenPdf::52                       0                       # What write queue length does an incoming req see
system.mem_ctrl.wrQLenPdf::53                       0                       # What write queue length does an incoming req see
system.mem_ctrl.wrQLenPdf::54                       0                       # What write queue length does an incoming req see
system.mem_ctrl.wrQLenPdf::55                       0                       # What write queue length does an incoming req see
system.mem_ctrl.wrQLenPdf::56                       0                       # What write queue length does an incoming req see
system.mem_ctrl.wrQLenPdf::57                       0                       # What write queue length does an incoming req see
system.mem_ctrl.wrQLenPdf::58                       0                       # What write queue length does an incoming req see
system.mem_ctrl.wrQLenPdf::59                       0                       # What write queue length does an incoming req see
system.mem_ctrl.wrQLenPdf::60                       0                       # What write queue length does an incoming req see
system.mem_ctrl.wrQLenPdf::61                       0                       # What write queue length does an incoming req see
system.mem_ctrl.wrQLenPdf::62                       0                       # What write queue length does an incoming req see
system.mem_ctrl.wrQLenPdf::63                       0                       # What write queue length does an incoming req see
system.mem_ctrl.bytesPerActivate::samples       334131                       # Bytes accessed per row activation
system.mem_ctrl.bytesPerActivate::mean      67.795015                       # Bytes accessed per row activation
system.mem_ctrl.bytesPerActivate::gmean     66.547462                       # Bytes accessed per row activation
system.mem_ctrl.bytesPerActivate::stdev     18.112003                       # Bytes accessed per row activation
system.mem_ctrl.bytesPerActivate::0-127        316290     94.66%     94.66% # Bytes accessed per row activation
system.mem_ctrl.bytesPerActivate::128-255        17579      5.26%     99.92% # Bytes accessed per row activation
system.mem_ctrl.bytesPerActivate::256-383          186      0.06%     99.98% # Bytes accessed per row activation
system.mem_ctrl.bytesPerActivate::384-511           53      0.02%     99.99% # Bytes accessed per row activation
system.mem_ctrl.bytesPerActivate::512-639            4      0.00%     99.99% # Bytes accessed per row activation
system.mem_ctrl.bytesPerActivate::640-767            4      0.00%    100.00% # Bytes accessed per row activation
system.mem_ctrl.bytesPerActivate::768-895            2      0.00%    100.00% # Bytes accessed per row activation
system.mem_ctrl.bytesPerActivate::896-1023            4      0.00%    100.00% # Bytes accessed per row activation
system.mem_ctrl.bytesPerActivate::1024-1151            9      0.00%    100.00% # Bytes accessed per row activation
system.mem_ctrl.bytesPerActivate::total        334131                       # Bytes accessed per row activation
system.mem_ctrl.rdPerTurnAround::samples            6                       # Reads before turning the bus around for writes
system.mem_ctrl.rdPerTurnAround::mean            4513                       # Reads before turning the bus around for writes
system.mem_ctrl.rdPerTurnAround::gmean    2832.190605                       # Reads before turning the bus around for writes
system.mem_ctrl.rdPerTurnAround::stdev    5014.701227                       # Reads before turning the bus around for writes
system.mem_ctrl.rdPerTurnAround::1024-1535            3     50.00%     50.00% # Reads before turning the bus around for writes
system.mem_ctrl.rdPerTurnAround::3584-4095            1     16.67%     66.67% # Reads before turning the bus around for writes
system.mem_ctrl.rdPerTurnAround::5632-6143            1     16.67%     83.33% # Reads before turning the bus around for writes
system.mem_ctrl.rdPerTurnAround::13824-14335            1     16.67%    100.00% # Reads before turning the bus around for writes
system.mem_ctrl.rdPerTurnAround::total              6                       # Reads before turning the bus around for writes
system.mem_ctrl.wrPerTurnAround::samples            6                       # Writes before turning the bus around for reads
system.mem_ctrl.wrPerTurnAround::mean              16                       # Writes before turning the bus around for reads
system.mem_ctrl.wrPerTurnAround::gmean      16.000000                       # Writes before turning the bus around for reads
system.mem_ctrl.wrPerTurnAround::16                 6    100.00%    100.00% # Writes before turning the bus around for reads
system.mem_ctrl.wrPerTurnAround::total              6                       # Writes before turning the bus around for reads
system.mem_ctrl.bytesReadDRAM                22649408                       # Total number of bytes read from DRAM
system.mem_ctrl.bytesReadWrQ                      128                       # Total number of bytes read from write queue
system.mem_ctrl.bytesWritten                     6144                       # Total number of bytes written to DRAM
system.mem_ctrl.bytesReadSys                 22649536                       # Total read bytes from the system interface side
system.mem_ctrl.bytesWrittenSys                  7232                       # Total written bytes from the system interface side
system.mem_ctrl.avgRdBW                       1867.18                       # Average DRAM read bandwidth in MiByte/s
system.mem_ctrl.avgWrBW                          0.51                       # Average achieved write bandwidth in MiByte/s
system.mem_ctrl.avgRdBWSys                    1867.20                       # Average system read bandwidth in MiByte/s
system.mem_ctrl.avgWrBWSys                       0.60                       # Average system write bandwidth in MiByte/s
system.mem_ctrl.peakBW                       12800.00                       # Theoretical peak bandwidth in MiByte/s
system.mem_ctrl.busUtil                         14.59                       # Data bus utilization in percentage
system.mem_ctrl.busUtilRead                     14.59                       # Data bus utilization in percentage for reads
system.mem_ctrl.busUtilWrite                     0.00                       # Data bus utilization in percentage for writes
system.mem_ctrl.totGap                    12130191000                       # Total gap between requests
system.mem_ctrl.avgGap                       34264.91                       # Average gap between requests
system.mem_ctrl.masterReadBytes::.cpu.inst        20096                       # Per-master bytes read from memory
system.mem_ctrl.masterReadBytes::.cpu.data     22629312                       # Per-master bytes read from memory
system.mem_ctrl.masterWriteBytes::.writebacks         6144                       # Per-master bytes write to memory
system.mem_ctrl.masterReadRate::.cpu.inst 1656685.553893227596                       # Per-master bytes read from memory rate (Bytes/sec)
system.mem_ctrl.masterReadRate::.cpu.data 1865528178.987990617752                       # Per-master bytes read from memory rate (Bytes/sec)
system.mem_ctrl.masterWriteRate::.writebacks 506502.589725317957                       # Per-master bytes write to memory rate (Bytes/sec)
system.mem_ctrl.masterReadAccesses::.cpu.inst          314                       # Per-master read serviced memory accesses
system.mem_ctrl.masterReadAccesses::.cpu.data       353585                       # Per-master read serviced memory accesses
system.mem_ctrl.masterWriteAccesses::.writebacks          113                       # Per-master write serviced memory accesses
system.mem_ctrl.masterReadTotalLat::.cpu.inst      8597250                       # Per-master read total memory access latency
system.mem_ctrl.masterReadTotalLat::.cpu.data  17913823250                       # Per-master read total memory access latency
system.mem_ctrl.masterWriteTotalLat::.writebacks  11796200500                       # Per-master write total memory access latency
system.mem_ctrl.masterReadAvgLat::.cpu.inst     27379.78                       # Per-master read average memory access latency
system.mem_ctrl.masterReadAvgLat::.cpu.data     50663.41                       # Per-master read average memory access latency
system.mem_ctrl.masterWriteAvgLat::.writebacks 104391154.87                       # Per-master write average memory access latency
system.mem_ctrl.pageHitRate                      5.61                       # Row buffer hit rate, read and write combined
system.mem_ctrl.rank1.actEnergy            1196285580                       # Energy for activate commands per rank (pJ)
system.mem_ctrl.rank1.preEnergy             635810505                       # Energy for precharge commands per rank (pJ)
system.mem_ctrl.rank1.readEnergy           1266100500                       # Energy for read commands per rank (pJ)
system.mem_ctrl.rank1.writeEnergy              255780                       # Energy for write commands per rank (pJ)
system.mem_ctrl.rank1.refreshEnergy      956994480.000000                       # Energy for refresh commands per rank (pJ)
system.mem_ctrl.rank1.actBackEnergy        5503267920                       # Energy for active background per rank (pJ)
system.mem_ctrl.rank1.preBackEnergy          23683200                       # Energy for precharge background per rank (pJ)
system.mem_ctrl.rank1.actPowerDownEnergy            0                       # Energy for active power-down per rank (pJ)
system.mem_ctrl.rank1.prePowerDownEnergy            0                       # Energy for precharge power-down per rank (pJ)
system.mem_ctrl.rank1.selfRefreshEnergy             0                       # Energy for self refresh per rank (pJ)
system.mem_ctrl.rank1.totalEnergy          9582397965                       # Total energy per rank (pJ)
system.mem_ctrl.rank1.averagePower         789.959210                       # Core power per rank (mW)
system.mem_ctrl.rank1.totalIdleTime                 0                       # Total Idle time Per DRAM Rank
system.mem_ctrl.rank1.memoryStateTime::IDLE     16189500                       # Time in different power states
system.mem_ctrl.rank1.memoryStateTime::REF    404820000                       # Time in different power states
system.mem_ctrl.rank1.memoryStateTime::SREF            0                       # Time in different power states
system.mem_ctrl.rank1.memoryStateTime::PRE_PDN            0                       # Time in different power states
system.mem_ctrl.rank1.memoryStateTime::ACT  11709234500                       # Time in different power states
system.mem_ctrl.rank1.memoryStateTime::ACT_PDN            0                       # Time in different power states
system.mem_ctrl.rank0.actEnergy            1189524000                       # Energy for activate commands per rank (pJ)
system.mem_ctrl.rank0.preEnergy             632216640                       # Energy for precharge commands per rank (pJ)
system.mem_ctrl.rank0.readEnergy           1260724080                       # Energy for read commands per rank (pJ)
system.mem_ctrl.rank0.writeEnergy              245340                       # Energy for write commands per rank (pJ)
system.mem_ctrl.rank0.refreshEnergy      956994480.000000                       # Energy for refresh commands per rank (pJ)
system.mem_ctrl.rank0.actBackEnergy        5503333470                       # Energy for active background per rank (pJ)
system.mem_ctrl.rank0.preBackEnergy          23628000                       # Energy for precharge background per rank (pJ)
system.mem_ctrl.rank0.actPowerDownEnergy            0                       # Energy for active power-down per rank (pJ)
system.mem_ctrl.rank0.prePowerDownEnergy            0                       # Energy for precharge power-down per rank (pJ)
system.mem_ctrl.rank0.selfRefreshEnergy             0                       # Energy for self refresh per rank (pJ)
system.mem_ctrl.rank0.totalEnergy          9566666010                       # Total energy per rank (pJ)
system.mem_ctrl.rank0.averagePower         788.662290                       # Core power per rank (mW)
system.mem_ctrl.rank0.totalIdleTime                 0                       # Total Idle time Per DRAM Rank
system.mem_ctrl.rank0.memoryStateTime::IDLE     15984500                       # Time in different power states
system.mem_ctrl.rank0.memoryStateTime::REF    404820000                       # Time in different power states
system.mem_ctrl.rank0.memoryStateTime::SREF            0                       # Time in different power states
system.mem_ctrl.rank0.memoryStateTime::PRE_PDN            0                       # Time in different power states
system.mem_ctrl.rank0.memoryStateTime::ACT  11709439500                       # Time in different power states
system.mem_ctrl.rank0.memoryStateTime::ACT_PDN            0                       # Time in different power states

---------- End Simulation Statistics   ----------
