
---------- Begin Simulation Statistics ----------
final_tick                                 2507131000                       # Number of ticks from beginning of simulation (restored from checkpoints and never reset)
host_inst_rate                                 162914                       # Simulator instruction rate (inst/s)
host_mem_usage                                 792940                       # Number of bytes of host memory used
host_op_rate                                   267799                       # Simulator op (including micro ops) rate (op/s)
host_seconds                                    17.80                       # Real time elapsed on the host
host_tick_rate                              140824981                       # Simulator tick rate (ticks/s)
sim_freq                                 1000000000000                       # Frequency of simulated ticks
sim_insts                                     2900360                       # Number of instructions simulated
sim_ops                                       4767670                       # Number of ops (including micro ops) simulated
sim_seconds                                  0.002507                       # Number of seconds simulated
sim_ticks                                  2507131000                       # Number of ticks simulated
system.cpu.branchPred.BTBCorrect                    0                       # Number of correct BTB predictions (this stat may not work properly.
system.cpu.branchPred.BTBHitPct              0.000000                       # BTB Hit Percentage
system.cpu.branchPred.BTBHits                       0                       # Number of BTB hits
system.cpu.branchPred.BTBLookups               644425                       # Number of BTB lookups
system.cpu.branchPred.RASInCorrect                  2                       # Number of incorrect RAS predictions.
system.cpu.branchPred.condIncorrect            104397                       # Number of conditional branches incorrect
system.cpu.branchPred.condPredicted           1022573                       # Number of conditional branches predicted
system.cpu.branchPred.indirectHits             371551                       # Number of indirect target hits.
system.cpu.branchPred.indirectLookups          644425                       # Number of indirect predictor lookups.
system.cpu.branchPred.indirectMisses           272874                       # Number of indirect misses.
system.cpu.branchPred.lookups                 1076515                       # Number of BP lookups
system.cpu.branchPred.usedRAS                   20529                       # Number of times the RAS was used to get a target.
system.cpu.branchPredindirectMispredicted        39466                       # Number of mispredicted indirect branches.
system.cpu.cc_regfile_reads                   3209028                       # number of cc regfile reads
system.cpu.cc_regfile_writes                  2767980                       # number of cc regfile writes
system.cpu.commit.amos                              0                       # Number of atomic instructions committed
system.cpu.commit.branchMispredicts            104420                       # The number of times a branch was mispredicted
system.cpu.commit.branches                     570212                       # Number of branches committed
system.cpu.commit.bw_lim_events                239852                       # number cycles where commit BW limit reached
system.cpu.commit.commitNonSpecStalls               8                       # The number of times commit has been forced to stall to communicate backwards
system.cpu.commit.commitSquashedInsts         2587105                       # The number of squashed insts skipped by commit
system.cpu.commit.committedInsts              2900360                       # Number of instructions committed
system.cpu.commit.committedOps                4767670                       # Number of ops (including micro ops) committed
system.cpu.commit.committed_per_cycle::samples      2120045                       # Number of insts commited each cycle
system.cpu.commit.committed_per_cycle::mean     2.248853                       # Number of insts commited each cycle
system.cpu.commit.committed_per_cycle::stdev     2.898697                       # Number of insts commited each cycle
system.cpu.commit.committed_per_cycle::underflows            0      0.00%      0.00% # Number of insts commited each cycle
system.cpu.commit.committed_per_cycle::0       966676     45.60%     45.60% # Number of insts commited each cycle
system.cpu.commit.committed_per_cycle::1       321735     15.18%     60.77% # Number of insts commited each cycle
system.cpu.commit.committed_per_cycle::2       130449      6.15%     66.93% # Number of insts commited each cycle
system.cpu.commit.committed_per_cycle::3       132550      6.25%     73.18% # Number of insts commited each cycle
system.cpu.commit.committed_per_cycle::4        94517      4.46%     77.64% # Number of insts commited each cycle
system.cpu.commit.committed_per_cycle::5        49347      2.33%     79.96% # Number of insts commited each cycle
system.cpu.commit.committed_per_cycle::6        50665      2.39%     82.35% # Number of insts commited each cycle
system.cpu.commit.committed_per_cycle::7       134254      6.33%     88.69% # Number of insts commited each cycle
system.cpu.commit.committed_per_cycle::8       239852     11.31%    100.00% # Number of insts commited each cycle
system.cpu.commit.committed_per_cycle::overflows            0      0.00%    100.00% # Number of insts commited each cycle
system.cpu.commit.committed_per_cycle::min_value            0                       # Number of insts commited each cycle
system.cpu.commit.committed_per_cycle::max_value            8                       # Number of insts commited each cycle
system.cpu.commit.committed_per_cycle::total      2120045                       # Number of insts commited each cycle
system.cpu.commit.fp_insts                        288                       # Number of committed floating point instructions.
system.cpu.commit.function_calls                 8278                       # Number of function calls committed.
system.cpu.commit.int_insts                   4751155                       # Number of committed integer instructions.
system.cpu.commit.loads                        420739                       # Number of loads committed
system.cpu.commit.membars                           0                       # Number of memory barriers committed
system.cpu.commit.op_class_0::No_OpClass         8230      0.17%      0.17% # Class of committed instruction
system.cpu.commit.op_class_0::IntAlu          4009724     84.10%     84.28% # Class of committed instruction
system.cpu.commit.op_class_0::IntMult               5      0.00%     84.28% # Class of committed instruction
system.cpu.commit.op_class_0::IntDiv               21      0.00%     84.28% # Class of committed instruction
system.cpu.commit.op_class_0::FloatAdd              2      0.00%     84.28% # Class of committed instruction
system.cpu.commit.op_class_0::FloatCmp              0      0.00%     84.28% # Class of committed instruction
system.cpu.commit.op_class_0::FloatCvt              0      0.00%     84.28% # Class of committed instruction
system.cpu.commit.op_class_0::FloatMult             0      0.00%     84.28% # Class of committed instruction
system.cpu.commit.op_class_0::FloatMultAcc            0      0.00%     84.28% # Class of committed instruction
system.cpu.commit.op_class_0::FloatDiv              0      0.00%     84.28% # Class of committed instruction
system.cpu.commit.op_class_0::FloatMisc             0      0.00%     84.28% # Class of committed instruction
system.cpu.commit.op_class_0::FloatSqrt             0      0.00%     84.28% # Class of committed instruction
system.cpu.commit.op_class_0::SimdAdd               0      0.00%     84.28% # Class of committed instruction
system.cpu.commit.op_class_0::SimdAddAcc            0      0.00%     84.28% # Class of committed instruction
system.cpu.commit.op_class_0::SimdAlu              34      0.00%     84.28% # Class of committed instruction
system.cpu.commit.op_class_0::SimdCmp               0      0.00%     84.28% # Class of committed instruction
system.cpu.commit.op_class_0::SimdCvt              28      0.00%     84.28% # Class of committed instruction
system.cpu.commit.op_class_0::SimdMisc             42      0.00%     84.28% # Class of committed instruction
system.cpu.commit.op_class_0::SimdMult              0      0.00%     84.28% # Class of committed instruction
system.cpu.commit.op_class_0::SimdMultAcc            0      0.00%     84.28% # Class of committed instruction
system.cpu.commit.op_class_0::SimdShift             0      0.00%     84.28% # Class of committed instruction
system.cpu.commit.op_class_0::SimdShiftAcc            0      0.00%     84.28% # Class of committed instruction
system.cpu.commit.op_class_0::SimdDiv               0      0.00%     84.28% # Class of committed instruction
system.cpu.commit.op_class_0::SimdSqrt              0      0.00%     84.28% # Class of committed instruction
system.cpu.commit.op_class_0::SimdFloatAdd            0      0.00%     84.28% # Class of committed instruction
system.cpu.commit.op_class_0::SimdFloatAlu            0      0.00%     84.28% # Class of committed instruction
system.cpu.commit.op_class_0::SimdFloatCmp            0      0.00%     84.28% # Class of committed instruction
system.cpu.commit.op_class_0::SimdFloatCvt            0      0.00%     84.28% # Class of committed instruction
system.cpu.commit.op_class_0::SimdFloatDiv            0      0.00%     84.28% # Class of committed instruction
system.cpu.commit.op_class_0::SimdFloatMisc            0      0.00%     84.28% # Class of committed instruction
system.cpu.commit.op_class_0::SimdFloatMult            0      0.00%     84.28% # Class of committed instruction
system.cpu.commit.op_class_0::SimdFloatMultAcc            0      0.00%     84.28% # Class of committed instruction
system.cpu.commit.op_class_0::SimdFloatSqrt            0      0.00%     84.28% # Class of committed instruction
system.cpu.commit.op_class_0::SimdReduceAdd            0      0.00%     84.28% # Class of committed instruction
system.cpu.commit.op_class_0::SimdReduceAlu            0      0.00%     84.28% # Class of committed instruction
system.cpu.commit.op_class_0::SimdReduceCmp            0      0.00%     84.28% # Class of committed instruction
system.cpu.commit.op_class_0::SimdFloatReduceAdd            0      0.00%     84.28% # Class of committed instruction
system.cpu.commit.op_class_0::SimdFloatReduceCmp            0      0.00%     84.28% # Class of committed instruction
system.cpu.commit.op_class_0::SimdAes               0      0.00%     84.28% # Class of committed instruction
system.cpu.commit.op_class_0::SimdAesMix            0      0.00%     84.28% # Class of committed instruction
system.cpu.commit.op_class_0::SimdSha1Hash            0      0.00%     84.28% # Class of committed instruction
system.cpu.commit.op_class_0::SimdSha1Hash2            0      0.00%     84.28% # Class of committed instruction
system.cpu.commit.op_class_0::SimdSha256Hash            0      0.00%     84.28% # Class of committed instruction
system.cpu.commit.op_class_0::SimdSha256Hash2            0      0.00%     84.28% # Class of committed instruction
system.cpu.commit.op_class_0::SimdShaSigma2            0      0.00%     84.28% # Class of committed instruction
system.cpu.commit.op_class_0::SimdShaSigma3            0      0.00%     84.28% # Class of committed instruction
system.cpu.commit.op_class_0::SimdPredAlu            0      0.00%     84.28% # Class of committed instruction
system.cpu.commit.op_class_0::MemRead          420715      8.82%     93.10% # Class of committed instruction
system.cpu.commit.op_class_0::MemWrite         328693      6.89%    100.00% # Class of committed instruction
system.cpu.commit.op_class_0::FloatMemRead           24      0.00%    100.00% # Class of committed instruction
system.cpu.commit.op_class_0::FloatMemWrite          152      0.00%    100.00% # Class of committed instruction
system.cpu.commit.op_class_0::IprAccess             0      0.00%    100.00% # Class of committed instruction
system.cpu.commit.op_class_0::InstPrefetch            0      0.00%    100.00% # Class of committed instruction
system.cpu.commit.op_class_0::total           4767670                       # Class of committed instruction
system.cpu.commit.refs                         749584                       # Number of memory references committed
system.cpu.commit.swp_count                         0                       # Number of s/w prefetches committed
system.cpu.commit.vec_insts                         0                       # Number of committed Vector instructions.
system.cpu.committedInsts                     2900360                       # Number of Instructions Simulated
system.cpu.committedOps                       4767670                       # Number of Ops (including micro ops) Simulated
system.cpu.cpi                               0.864421                       # CPI: Cycles Per Instruction
system.cpu.cpi_total                         0.864421                       # CPI: Total CPI of All Threads
system.cpu.decode.BlockedCycles                495756                       # Number of cycles decode is blocked
system.cpu.decode.DecodedInsts                8911226                       # Number of instructions handled by decode
system.cpu.decode.IdleCycles                   628065                       # Number of cycles decode is idle
system.cpu.decode.RunCycles                   1096678                       # Number of cycles decode is running
system.cpu.decode.SquashCycles                 104529                       # Number of cycles decode is squashing
system.cpu.decode.UnblockCycles                166715                       # Number of cycles decode is unblocking
system.cpu.dtb.rdAccesses                      516874                       # TLB accesses on read requests
system.cpu.dtb.rdMisses                            61                       # TLB misses on read requests
system.cpu.dtb.wrAccesses                      414731                       # TLB accesses on write requests
system.cpu.dtb.wrMisses                            18                       # TLB misses on write requests
system.cpu.fetch.Branches                     1076515                       # Number of branches that fetch encountered
system.cpu.fetch.CacheLines                    605603                       # Number of cache lines fetched
system.cpu.fetch.Cycles                       1724524                       # Number of cycles fetch has run and was not squashing or blocked
system.cpu.fetch.IcacheSquashes                 30567                       # Number of outstanding Icache misses that were squashed
system.cpu.fetch.Insts                        5834892                       # Number of instructions fetch has processed
system.cpu.fetch.MiscStallCycles                   27                       # Number of cycles fetch has spent waiting on interrupts, or bad addresses, or out of MSHRs
system.cpu.fetch.PendingQuiesceStallCycles            7                       # Number of stall cycles due to pending quiesce instructions
system.cpu.fetch.PendingTrapStallCycles           151                       # Number of stall cycles due to pending traps
system.cpu.fetch.SquashCycles                  209058                       # Number of cycles fetch has spent squashing
system.cpu.fetch.branchRate                  0.429381                       # Number of branch fetches per cycle
system.cpu.fetch.icacheStallCycles             662505                       # Number of cycles fetch is stalled on an Icache miss
system.cpu.fetch.predictedBranches             392080                       # Number of branches that fetch has predicted taken
system.cpu.fetch.rate                        2.327317                       # Number of inst fetches per cycle
system.cpu.fetch.rateDist::samples            2491743                       # Number of instructions fetched each cycle (Total)
system.cpu.fetch.rateDist::mean              3.810225                       # Number of instructions fetched each cycle (Total)
system.cpu.fetch.rateDist::stdev             3.694495                       # Number of instructions fetched each cycle (Total)
system.cpu.fetch.rateDist::underflows               0      0.00%      0.00% # Number of instructions fetched each cycle (Total)
system.cpu.fetch.rateDist::0                  1104307     44.32%     44.32% # Number of instructions fetched each cycle (Total)
system.cpu.fetch.rateDist::1                    12780      0.51%     44.83% # Number of instructions fetched each cycle (Total)
system.cpu.fetch.rateDist::2                     7227      0.29%     45.12% # Number of instructions fetched each cycle (Total)
system.cpu.fetch.rateDist::3                   184252      7.39%     52.52% # Number of instructions fetched each cycle (Total)
system.cpu.fetch.rateDist::4                    29116      1.17%     53.68% # Number of instructions fetched each cycle (Total)
system.cpu.fetch.rateDist::5                   100012      4.01%     57.70% # Number of instructions fetched each cycle (Total)
system.cpu.fetch.rateDist::6                    40997      1.65%     59.34% # Number of instructions fetched each cycle (Total)
system.cpu.fetch.rateDist::7                    52810      2.12%     61.46% # Number of instructions fetched each cycle (Total)
system.cpu.fetch.rateDist::8                   960242     38.54%    100.00% # Number of instructions fetched each cycle (Total)
system.cpu.fetch.rateDist::overflows                0      0.00%    100.00% # Number of instructions fetched each cycle (Total)
system.cpu.fetch.rateDist::min_value                0                       # Number of instructions fetched each cycle (Total)
system.cpu.fetch.rateDist::max_value                8                       # Number of instructions fetched each cycle (Total)
system.cpu.fetch.rateDist::total              2491743                       # Number of instructions fetched each cycle (Total)
system.cpu.fp_regfile_reads                       455                       # number of floating regfile reads
system.cpu.fp_regfile_writes                      148                       # number of floating regfile writes
system.cpu.idleCycles                           15389                       # Total number of cycles that the CPU has spent unscheduled due to idling
system.cpu.iew.branchMispredicts               115144                       # Number of branch mispredicts detected at execute
system.cpu.iew.exec_branches                   721114                       # Number of branches executed
system.cpu.iew.exec_nop                             0                       # number of nop insts executed
system.cpu.iew.exec_rate                     2.559470                       # Inst execution rate
system.cpu.iew.exec_refs                       931341                       # number of memory reference insts executed
system.cpu.iew.exec_stores                     414730                       # Number of stores executed
system.cpu.iew.exec_swp                             0                       # number of swp insts executed
system.cpu.iew.iewBlockCycles                  273677                       # Number of cycles IEW is blocking
system.cpu.iew.iewDispLoadInsts                614404                       # Number of dispatched load instructions
system.cpu.iew.iewDispNonSpecInsts                 29                       # Number of dispatched non-speculative instructions
system.cpu.iew.iewDispSquashedInsts             16312                       # Number of squashed instructions skipped by dispatch
system.cpu.iew.iewDispStoreInsts               529936                       # Number of dispatched store instructions
system.cpu.iew.iewDispatchedInsts             7354776                       # Number of instructions dispatched to IQ
system.cpu.iew.iewExecLoadInsts                516611                       # Number of load instructions executed
system.cpu.iew.iewExecSquashedInsts            266020                       # Number of squashed instructions skipped in execute
system.cpu.iew.iewExecutedInsts               6416928                       # Number of executed instructions
system.cpu.iew.iewIQFullEvents                    159                       # Number of times the IQ has become full, causing a stall
system.cpu.iew.iewIdleCycles                        0                       # Number of cycles IEW is idle
system.cpu.iew.iewLSQFullEvents                  1188                       # Number of times the LSQ has become full, causing a stall
system.cpu.iew.iewSquashCycles                 104529                       # Number of cycles IEW is squashing
system.cpu.iew.iewUnblockCycles                  1385                       # Number of cycles IEW is unblocking
system.cpu.iew.lsq.thread0.blockedLoads             0                       # Number of blocked loads due to partial load-store forwarding
system.cpu.iew.lsq.thread0.cacheBlocked             4                       # Number of times an access to memory failed due to the cache being blocked
system.cpu.iew.lsq.thread0.forwLoads            27379                       # Number of loads that had data forwarded from stores
system.cpu.iew.lsq.thread0.ignoredResponses           21                       # Number of memory responses ignored because the instruction is squashed
system.cpu.iew.lsq.thread0.invAddrLoads             0                       # Number of loads ignored due to an invalid address
system.cpu.iew.lsq.thread0.invAddrSwpfs             0                       # Number of software prefetches ignored due to an invalid address
system.cpu.iew.lsq.thread0.memOrderViolation          128                       # Number of memory ordering violations
system.cpu.iew.lsq.thread0.rescheduledLoads            1                       # Number of loads that were rescheduled
system.cpu.iew.lsq.thread0.squashedLoads       193665                       # Number of loads squashed
system.cpu.iew.lsq.thread0.squashedStores       201091                       # Number of stores squashed
system.cpu.iew.memOrderViolationEvents            128                       # Number of memory order violations
system.cpu.iew.predictedNotTakenIncorrect        77097                       # Number of branches that were predicted not taken incorrectly
system.cpu.iew.predictedTakenIncorrect          38047                       # Number of branches that were predicted taken incorrectly
system.cpu.iew.wb_consumers                   6219489                       # num instructions consuming a value
system.cpu.iew.wb_count                       6354147                       # cumulative count of insts written-back
system.cpu.iew.wb_fanout                     0.720857                       # average fanout of values written-back
system.cpu.iew.wb_producers                   4483361                       # num instructions producing a value
system.cpu.iew.wb_rate                       2.534429                       # insts written-back per cycle
system.cpu.iew.wb_sent                        6373797                       # cumulative count of insts sent to commit
system.cpu.int_regfile_reads                  8647040                       # number of integer regfile reads
system.cpu.int_regfile_writes                 5198856                       # number of integer regfile writes
system.cpu.ipc                               1.156844                       # IPC: Instructions Per Cycle
system.cpu.ipc_total                         1.156844                       # IPC: Total IPC of All Threads
system.cpu.iq.FU_type_0::No_OpClass             17836      0.27%      0.27% # Type of FU issued
system.cpu.iq.FU_type_0::IntAlu               5667240     84.80%     85.07% # Type of FU issued
system.cpu.iq.FU_type_0::IntMult                    5      0.00%     85.07% # Type of FU issued
system.cpu.iq.FU_type_0::IntDiv                    22      0.00%     85.07% # Type of FU issued
system.cpu.iq.FU_type_0::FloatAdd                   2      0.00%     85.07% # Type of FU issued
system.cpu.iq.FU_type_0::FloatCmp                   0      0.00%     85.07% # Type of FU issued
system.cpu.iq.FU_type_0::FloatCvt                   0      0.00%     85.07% # Type of FU issued
system.cpu.iq.FU_type_0::FloatMult                  0      0.00%     85.07% # Type of FU issued
system.cpu.iq.FU_type_0::FloatMultAcc               0      0.00%     85.07% # Type of FU issued
system.cpu.iq.FU_type_0::FloatDiv                   0      0.00%     85.07% # Type of FU issued
system.cpu.iq.FU_type_0::FloatMisc                  0      0.00%     85.07% # Type of FU issued
system.cpu.iq.FU_type_0::FloatSqrt                  0      0.00%     85.07% # Type of FU issued
system.cpu.iq.FU_type_0::SimdAdd                    0      0.00%     85.07% # Type of FU issued
system.cpu.iq.FU_type_0::SimdAddAcc                 0      0.00%     85.07% # Type of FU issued
system.cpu.iq.FU_type_0::SimdAlu                   50      0.00%     85.07% # Type of FU issued
system.cpu.iq.FU_type_0::SimdCmp                    0      0.00%     85.07% # Type of FU issued
system.cpu.iq.FU_type_0::SimdCvt                   42      0.00%     85.07% # Type of FU issued
system.cpu.iq.FU_type_0::SimdMisc                  52      0.00%     85.07% # Type of FU issued
system.cpu.iq.FU_type_0::SimdMult                   0      0.00%     85.07% # Type of FU issued
system.cpu.iq.FU_type_0::SimdMultAcc                0      0.00%     85.07% # Type of FU issued
system.cpu.iq.FU_type_0::SimdShift                  0      0.00%     85.07% # Type of FU issued
system.cpu.iq.FU_type_0::SimdShiftAcc               0      0.00%     85.07% # Type of FU issued
system.cpu.iq.FU_type_0::SimdDiv                    0      0.00%     85.07% # Type of FU issued
system.cpu.iq.FU_type_0::SimdSqrt                   0      0.00%     85.07% # Type of FU issued
system.cpu.iq.FU_type_0::SimdFloatAdd               0      0.00%     85.07% # Type of FU issued
system.cpu.iq.FU_type_0::SimdFloatAlu               0      0.00%     85.07% # Type of FU issued
system.cpu.iq.FU_type_0::SimdFloatCmp               0      0.00%     85.07% # Type of FU issued
system.cpu.iq.FU_type_0::SimdFloatCvt               0      0.00%     85.07% # Type of FU issued
system.cpu.iq.FU_type_0::SimdFloatDiv               0      0.00%     85.07% # Type of FU issued
system.cpu.iq.FU_type_0::SimdFloatMisc              0      0.00%     85.07% # Type of FU issued
system.cpu.iq.FU_type_0::SimdFloatMult              0      0.00%     85.07% # Type of FU issued
system.cpu.iq.FU_type_0::SimdFloatMultAcc            0      0.00%     85.07% # Type of FU issued
system.cpu.iq.FU_type_0::SimdFloatSqrt              0      0.00%     85.07% # Type of FU issued
system.cpu.iq.FU_type_0::SimdReduceAdd              0      0.00%     85.07% # Type of FU issued
system.cpu.iq.FU_type_0::SimdReduceAlu              0      0.00%     85.07% # Type of FU issued
system.cpu.iq.FU_type_0::SimdReduceCmp              0      0.00%     85.07% # Type of FU issued
system.cpu.iq.FU_type_0::SimdFloatReduceAdd            0      0.00%     85.07% # Type of FU issued
system.cpu.iq.FU_type_0::SimdFloatReduceCmp            0      0.00%     85.07% # Type of FU issued
system.cpu.iq.FU_type_0::SimdAes                    0      0.00%     85.07% # Type of FU issued
system.cpu.iq.FU_type_0::SimdAesMix                 0      0.00%     85.07% # Type of FU issued
system.cpu.iq.FU_type_0::SimdSha1Hash               0      0.00%     85.07% # Type of FU issued
system.cpu.iq.FU_type_0::SimdSha1Hash2              0      0.00%     85.07% # Type of FU issued
system.cpu.iq.FU_type_0::SimdSha256Hash             0      0.00%     85.07% # Type of FU issued
system.cpu.iq.FU_type_0::SimdSha256Hash2            0      0.00%     85.07% # Type of FU issued
system.cpu.iq.FU_type_0::SimdShaSigma2              0      0.00%     85.07% # Type of FU issued
system.cpu.iq.FU_type_0::SimdShaSigma3              0      0.00%     85.07% # Type of FU issued
system.cpu.iq.FU_type_0::SimdPredAlu                0      0.00%     85.07% # Type of FU issued
system.cpu.iq.FU_type_0::MemRead               553914      8.29%     93.36% # Type of FU issued
system.cpu.iq.FU_type_0::MemWrite              440768      6.60%     99.95% # Type of FU issued
system.cpu.iq.FU_type_0::FloatMemRead            2864      0.04%    100.00% # Type of FU issued
system.cpu.iq.FU_type_0::FloatMemWrite            153      0.00%    100.00% # Type of FU issued
system.cpu.iq.FU_type_0::IprAccess                  0      0.00%    100.00% # Type of FU issued
system.cpu.iq.FU_type_0::InstPrefetch               0      0.00%    100.00% # Type of FU issued
system.cpu.iq.FU_type_0::total                6682948                       # Type of FU issued
system.cpu.iq.fp_alu_accesses                    3186                       # Number of floating point alu accesses
system.cpu.iq.fp_inst_queue_reads                6359                       # Number of floating instruction queue reads
system.cpu.iq.fp_inst_queue_wakeup_accesses          339                       # Number of floating instruction queue wakeup accesses
system.cpu.iq.fp_inst_queue_writes              24902                       # Number of floating instruction queue writes
system.cpu.iq.fu_busy_cnt                      212188                       # FU busy when requested
system.cpu.iq.fu_busy_rate                   0.031751                       # FU busy rate (busy events/executed inst)
system.cpu.iq.fu_full::No_OpClass                   0      0.00%      0.00% # attempts to use FU when none available
system.cpu.iq.fu_full::IntAlu                  211998     99.91%     99.91% # attempts to use FU when none available
system.cpu.iq.fu_full::IntMult                      0      0.00%     99.91% # attempts to use FU when none available
system.cpu.iq.fu_full::IntDiv                       0      0.00%     99.91% # attempts to use FU when none available
system.cpu.iq.fu_full::FloatAdd                     0      0.00%     99.91% # attempts to use FU when none available
system.cpu.iq.fu_full::FloatCmp                     0      0.00%     99.91% # attempts to use FU when none available
system.cpu.iq.fu_full::FloatCvt                     0      0.00%     99.91% # attempts to use FU when none available
system.cpu.iq.fu_full::FloatMult                    0      0.00%     99.91% # attempts to use FU when none available
system.cpu.iq.fu_full::FloatMultAcc                 0      0.00%     99.91% # attempts to use FU when none available
system.cpu.iq.fu_full::FloatDiv                     0      0.00%     99.91% # attempts to use FU when none available
system.cpu.iq.fu_full::FloatMisc                    0      0.00%     99.91% # attempts to use FU when none available
system.cpu.iq.fu_full::FloatSqrt                    0      0.00%     99.91% # attempts to use FU when none available
system.cpu.iq.fu_full::SimdAdd                      0      0.00%     99.91% # attempts to use FU when none available
system.cpu.iq.fu_full::SimdAddAcc                   0      0.00%     99.91% # attempts to use FU when none available
system.cpu.iq.fu_full::SimdAlu                      2      0.00%     99.91% # attempts to use FU when none available
system.cpu.iq.fu_full::SimdCmp                      0      0.00%     99.91% # attempts to use FU when none available
system.cpu.iq.fu_full::SimdCvt                      2      0.00%     99.91% # attempts to use FU when none available
system.cpu.iq.fu_full::SimdMisc                     0      0.00%     99.91% # attempts to use FU when none available
system.cpu.iq.fu_full::SimdMult                     0      0.00%     99.91% # attempts to use FU when none available
system.cpu.iq.fu_full::SimdMultAcc                  0      0.00%     99.91% # attempts to use FU when none available
system.cpu.iq.fu_full::SimdShift                    0      0.00%     99.91% # attempts to use FU when none available
system.cpu.iq.fu_full::SimdShiftAcc                 0      0.00%     99.91% # attempts to use FU when none available
system.cpu.iq.fu_full::SimdDiv                      0      0.00%     99.91% # attempts to use FU when none available
system.cpu.iq.fu_full::SimdSqrt                     0      0.00%     99.91% # attempts to use FU when none available
system.cpu.iq.fu_full::SimdFloatAdd                 0      0.00%     99.91% # attempts to use FU when none available
system.cpu.iq.fu_full::SimdFloatAlu                 0      0.00%     99.91% # attempts to use FU when none available
system.cpu.iq.fu_full::SimdFloatCmp                 0      0.00%     99.91% # attempts to use FU when none available
system.cpu.iq.fu_full::SimdFloatCvt                 0      0.00%     99.91% # attempts to use FU when none available
system.cpu.iq.fu_full::SimdFloatDiv                 0      0.00%     99.91% # attempts to use FU when none available
system.cpu.iq.fu_full::SimdFloatMisc                0      0.00%     99.91% # attempts to use FU when none available
system.cpu.iq.fu_full::SimdFloatMult                0      0.00%     99.91% # attempts to use FU when none available
system.cpu.iq.fu_full::SimdFloatMultAcc             0      0.00%     99.91% # attempts to use FU when none available
system.cpu.iq.fu_full::SimdFloatSqrt                0      0.00%     99.91% # attempts to use FU when none available
system.cpu.iq.fu_full::SimdReduceAdd                0      0.00%     99.91% # attempts to use FU when none available
system.cpu.iq.fu_full::SimdReduceAlu                0      0.00%     99.91% # attempts to use FU when none available
system.cpu.iq.fu_full::SimdReduceCmp                0      0.00%     99.91% # attempts to use FU when none available
system.cpu.iq.fu_full::SimdFloatReduceAdd            0      0.00%     99.91% # attempts to use FU when none available
system.cpu.iq.fu_full::SimdFloatReduceCmp            0      0.00%     99.91% # attempts to use FU when none available
system.cpu.iq.fu_full::SimdAes                      0      0.00%     99.91% # attempts to use FU when none available
system.cpu.iq.fu_full::SimdAesMix                   0      0.00%     99.91% # attempts to use FU when none available
system.cpu.iq.fu_full::SimdSha1Hash                 0      0.00%     99.91% # attempts to use FU when none available
system.cpu.iq.fu_full::SimdSha1Hash2                0      0.00%     99.91% # attempts to use FU when none available
system.cpu.iq.fu_full::SimdSha256Hash               0      0.00%     99.91% # attempts to use FU when none available
system.cpu.iq.fu_full::SimdSha256Hash2              0      0.00%     99.91% # attempts to use FU when none available
system.cpu.iq.fu_full::SimdShaSigma2                0      0.00%     99.91% # attempts to use FU when none available
system.cpu.iq.fu_full::SimdShaSigma3                0      0.00%     99.91% # attempts to use FU when none available
system.cpu.iq.fu_full::SimdPredAlu                  0      0.00%     99.91% # attempts to use FU when none available
system.cpu.iq.fu_full::MemRead                    136      0.06%     99.98% # attempts to use FU when none available
system.cpu.iq.fu_full::MemWrite                    41      0.02%    100.00% # attempts to use FU when none available
system.cpu.iq.fu_full::FloatMemRead                 1      0.00%    100.00% # attempts to use FU when none available
system.cpu.iq.fu_full::FloatMemWrite                8      0.00%    100.00% # attempts to use FU when none available
system.cpu.iq.fu_full::IprAccess                    0      0.00%    100.00% # attempts to use FU when none available
system.cpu.iq.fu_full::InstPrefetch                 0      0.00%    100.00% # attempts to use FU when none available
system.cpu.iq.int_alu_accesses                6874114                       # Number of integer alu accesses
system.cpu.iq.int_inst_queue_reads           16084809                       # Number of integer instruction queue reads
system.cpu.iq.int_inst_queue_wakeup_accesses      6353808                       # Number of integer instruction queue wakeup accesses
system.cpu.iq.int_inst_queue_writes           9917100                       # Number of integer instruction queue writes
system.cpu.iq.iqInstsAdded                    7354718                       # Number of instructions added to the IQ (excludes non-spec)
system.cpu.iq.iqInstsIssued                   6682948                       # Number of instructions issued
system.cpu.iq.iqNonSpecInstsAdded                  58                       # Number of non-speculative instructions added to the IQ
system.cpu.iq.iqSquashedInstsExamined         2587105                       # Number of squashed instructions iterated over during squash; mainly for profiling
system.cpu.iq.iqSquashedInstsIssued             21341                       # Number of squashed instructions issued
system.cpu.iq.iqSquashedNonSpecRemoved             50                       # Number of squashed non-spec instructions that were removed
system.cpu.iq.iqSquashedOperandsExamined      2765852                       # Number of squashed operands that are examined and possibly removed from graph
system.cpu.iq.issued_per_cycle::samples       2491743                       # Number of insts issued each cycle
system.cpu.iq.issued_per_cycle::mean         2.682037                       # Number of insts issued each cycle
system.cpu.iq.issued_per_cycle::stdev        2.483793                       # Number of insts issued each cycle
system.cpu.iq.issued_per_cycle::underflows            0      0.00%      0.00% # Number of insts issued each cycle
system.cpu.iq.issued_per_cycle::0              855944     34.35%     34.35% # Number of insts issued each cycle
system.cpu.iq.issued_per_cycle::1              181520      7.28%     41.64% # Number of insts issued each cycle
system.cpu.iq.issued_per_cycle::2              237443      9.53%     51.17% # Number of insts issued each cycle
system.cpu.iq.issued_per_cycle::3              239845      9.63%     60.79% # Number of insts issued each cycle
system.cpu.iq.issued_per_cycle::4              256781     10.31%     71.10% # Number of insts issued each cycle
system.cpu.iq.issued_per_cycle::5              230257      9.24%     80.34% # Number of insts issued each cycle
system.cpu.iq.issued_per_cycle::6              324808     13.04%     93.37% # Number of insts issued each cycle
system.cpu.iq.issued_per_cycle::7              141410      5.68%     99.05% # Number of insts issued each cycle
system.cpu.iq.issued_per_cycle::8               23735      0.95%    100.00% # Number of insts issued each cycle
system.cpu.iq.issued_per_cycle::overflows            0      0.00%    100.00% # Number of insts issued each cycle
system.cpu.iq.issued_per_cycle::min_value            0                       # Number of insts issued each cycle
system.cpu.iq.issued_per_cycle::max_value            8                       # Number of insts issued each cycle
system.cpu.iq.issued_per_cycle::total         2491743                       # Number of insts issued each cycle
system.cpu.iq.rate                           2.665575                       # Inst issue rate
system.cpu.iq.vec_alu_accesses                      0                       # Number of vector alu accesses
system.cpu.iq.vec_inst_queue_reads                  0                       # Number of vector instruction queue reads
system.cpu.iq.vec_inst_queue_wakeup_accesses            0                       # Number of vector instruction queue wakeup accesses
system.cpu.iq.vec_inst_queue_writes                 0                       # Number of vector instruction queue writes
system.cpu.itb.rdAccesses                           0                       # TLB accesses on read requests
system.cpu.itb.rdMisses                             0                       # TLB misses on read requests
system.cpu.itb.wrAccesses                      605630                       # TLB accesses on write requests
system.cpu.itb.wrMisses                            58                       # TLB misses on write requests
system.cpu.memDep0.conflictingLoads            124477                       # Number of conflicting loads.
system.cpu.memDep0.conflictingStores           160275                       # Number of conflicting stores.
system.cpu.memDep0.insertedLoads               614404                       # Number of loads inserted to the mem dependence unit.
system.cpu.memDep0.insertedStores              529936                       # Number of stores inserted to the mem dependence unit.
system.cpu.misc_regfile_reads                 2434098                       # number of misc regfile reads
system.cpu.misc_regfile_writes                      1                       # number of misc regfile writes
system.cpu.numCycles                          2507132                       # number of cpu cycles simulated
system.cpu.numWorkItemsCompleted                    0                       # number of work items this cpu completed
system.cpu.numWorkItemsStarted                      0                       # number of work items this cpu started
system.cpu.rename.BlockCycles                  403640                       # Number of cycles rename is blocking
system.cpu.rename.CommittedMaps               5921431                       # Number of HB maps that are committed
system.cpu.rename.IQFullEvents                   5270                       # Number of times rename has blocked due to IQ full
system.cpu.rename.IdleCycles                   706346                       # Number of cycles rename is idle
system.cpu.rename.ROBFullEvents                 57597                       # Number of times rename has blocked due to ROB full
system.cpu.rename.RenameLookups              19835407                       # Number of register rename lookups that rename has made
system.cpu.rename.RenamedInsts                8408444                       # Number of instructions processed by rename
system.cpu.rename.RenamedOperands            10427055                       # Number of destination operands rename has renamed
system.cpu.rename.RunCycles                   1115684                       # Number of cycles rename is running
system.cpu.rename.SQFullEvents                  23909                       # Number of times rename has blocked due to SQ full
system.cpu.rename.SquashCycles                 104529                       # Number of cycles rename is squashing
system.cpu.rename.UnblockCycles                160518                       # Number of cycles rename is unblocking
system.cpu.rename.UndoneMaps                  4505624                       # Number of HB maps that are undone due to squashing
system.cpu.rename.fp_rename_lookups              7071                       # Number of floating rename lookups
system.cpu.rename.int_rename_lookups         12018671                       # Number of integer rename lookups
system.cpu.rename.serializeStallCycles           1026                       # count of cycles rename stalled for serializing inst
system.cpu.rename.serializingInsts                 22                       # count of serializing insts renamed
system.cpu.rename.skidInsts                    695070                       # count of insts added to the skid buffer
system.cpu.rename.tempSerializingInsts             16                       # count of temporary serializing insts renamed
system.cpu.rob.rob_reads                      9234968                       # The number of ROB reads
system.cpu.rob.rob_writes                    15083616                       # The number of ROB writes
system.cpu.timesIdled                             188                       # Number of times that the entire CPU went into an idle state and unscheduled itself
system.cpu.workload.numSyscalls                     7                       # Number of system calls
system.l2bus.snoop_filter.hit_multi_requests            1                       # Number of requests hitting in the snoop filter with multiple (>1) holders of the requested data.
system.l2bus.snoop_filter.hit_multi_snoops            0                       # Number of snoops hitting in the snoop filter with multiple (>1) holders of the requested data.
system.l2bus.snoop_filter.hit_single_requests           22                       # Number of requests hitting in the snoop filter with a single holder of the requested data.
system.l2bus.snoop_filter.hit_single_snoops            0                       # Number of snoops hitting in the snoop filter with a single holder of the requested data.
system.l2bus.snoop_filter.tot_requests           1550                       # Total number of requests made to the snoop filter.
system.l2bus.snoop_filter.tot_snoops                0                       # Total number of snoops made to the snoop filter.
system.membus.snoop_filter.hit_multi_requests            0                       # Number of requests hitting in the snoop filter with multiple (>1) holders of the requested data.
system.membus.snoop_filter.hit_multi_snoops            0                       # Number of snoops hitting in the snoop filter with multiple (>1) holders of the requested data.
system.membus.snoop_filter.hit_single_requests            0                       # Number of requests hitting in the snoop filter with a single holder of the requested data.
system.membus.snoop_filter.hit_single_snoops            0                       # Number of snoops hitting in the snoop filter with a single holder of the requested data.
system.membus.snoop_filter.tot_requests          1526                       # Total number of requests made to the snoop filter.
system.membus.snoop_filter.tot_snoops               0                       # Total number of snoops made to the snoop filter.
system.membus.pwrStateResidencyTicks::UNDEFINED   2507131000                       # Cumulative time (in ticks) in various power states
system.membus.trans_dist::ReadResp                988                       # Transaction distribution
system.membus.trans_dist::ReadExReq               538                       # Transaction distribution
system.membus.trans_dist::ReadExResp              538                       # Transaction distribution
system.membus.trans_dist::ReadSharedReq           988                       # Transaction distribution
system.membus.pkt_count_system.l2cache.mem_side::system.mem_ctrl.port         3052                       # Packet count per connected master and slave (bytes)
system.membus.pkt_count_system.l2cache.mem_side::total         3052                       # Packet count per connected master and slave (bytes)
system.membus.pkt_count::total                   3052                       # Packet count per connected master and slave (bytes)
system.membus.pkt_size_system.l2cache.mem_side::system.mem_ctrl.port        97664                       # Cumulative packet size per connected master and slave (bytes)
system.membus.pkt_size_system.l2cache.mem_side::total        97664                       # Cumulative packet size per connected master and slave (bytes)
system.membus.pkt_size::total                   97664                       # Cumulative packet size per connected master and slave (bytes)
system.membus.snoops                                0                       # Total snoops (count)
system.membus.snoopTraffic                          0                       # Total snoop traffic (bytes)
system.membus.snoop_fanout::samples              1526                       # Request fanout histogram
system.membus.snoop_fanout::mean                    0                       # Request fanout histogram
system.membus.snoop_fanout::stdev                   0                       # Request fanout histogram
system.membus.snoop_fanout::underflows              0      0.00%      0.00% # Request fanout histogram
system.membus.snoop_fanout::0                    1526    100.00%    100.00% # Request fanout histogram
system.membus.snoop_fanout::1                       0      0.00%    100.00% # Request fanout histogram
system.membus.snoop_fanout::overflows               0      0.00%    100.00% # Request fanout histogram
system.membus.snoop_fanout::min_value               0                       # Request fanout histogram
system.membus.snoop_fanout::max_value               0                       # Request fanout histogram
system.membus.snoop_fanout::total                1526                       # Request fanout histogram
system.membus.reqLayer2.occupancy             1526000                       # Layer occupancy (ticks)
system.membus.reqLayer2.utilization               0.1                       # Layer utilization (%)
system.membus.respLayer0.occupancy            7636500                       # Layer occupancy (ticks)
system.membus.respLayer0.utilization              0.3                       # Layer utilization (%)
system.l2bus.pwrStateResidencyTicks::UNDEFINED   2507131000                       # Cumulative time (in ticks) in various power states
system.l2bus.trans_dist::ReadResp                 989                       # Transaction distribution
system.l2bus.trans_dist::WritebackDirty             5                       # Transaction distribution
system.l2bus.trans_dist::CleanEvict                17                       # Transaction distribution
system.l2bus.trans_dist::ReadExReq                538                       # Transaction distribution
system.l2bus.trans_dist::ReadExResp               538                       # Transaction distribution
system.l2bus.trans_dist::ReadSharedReq            990                       # Transaction distribution
system.l2bus.pkt_count_system.cpu.icache.mem_side::system.l2cache.cpu_side          669                       # Packet count per connected master and slave (bytes)
system.l2bus.pkt_count_system.cpu.dcache.mem_side::system.l2cache.cpu_side         2408                       # Packet count per connected master and slave (bytes)
system.l2bus.pkt_count::total                    3077                       # Packet count per connected master and slave (bytes)
system.l2bus.pkt_size_system.cpu.icache.mem_side::system.l2cache.cpu_side        21376                       # Cumulative packet size per connected master and slave (bytes)
system.l2bus.pkt_size_system.cpu.dcache.mem_side::system.l2cache.cpu_side        76672                       # Cumulative packet size per connected master and slave (bytes)
system.l2bus.pkt_size::total                    98048                       # Cumulative packet size per connected master and slave (bytes)
system.l2bus.snoops                                 0                       # Total snoops (count)
system.l2bus.snoopTraffic                           0                       # Total snoop traffic (bytes)
system.l2bus.snoop_fanout::samples               1528                       # Request fanout histogram
system.l2bus.snoop_fanout::mean              0.000654                       # Request fanout histogram
system.l2bus.snoop_fanout::stdev             0.025582                       # Request fanout histogram
system.l2bus.snoop_fanout::underflows               0      0.00%      0.00% # Request fanout histogram
system.l2bus.snoop_fanout::0                     1527     99.93%     99.93% # Request fanout histogram
system.l2bus.snoop_fanout::1                        1      0.07%    100.00% # Request fanout histogram
system.l2bus.snoop_fanout::2                        0      0.00%    100.00% # Request fanout histogram
system.l2bus.snoop_fanout::overflows                0      0.00%    100.00% # Request fanout histogram
system.l2bus.snoop_fanout::min_value                0                       # Request fanout histogram
system.l2bus.snoop_fanout::max_value                1                       # Request fanout histogram
system.l2bus.snoop_fanout::total                 1528                       # Request fanout histogram
system.l2bus.respLayer1.occupancy             3579000                       # Layer occupancy (ticks)
system.l2bus.respLayer1.utilization               0.1                       # Layer utilization (%)
system.l2bus.reqLayer0.occupancy              1560000                       # Layer occupancy (ticks)
system.l2bus.reqLayer0.utilization                0.1                       # Layer utilization (%)
system.l2bus.respLayer0.occupancy             1002000                       # Layer occupancy (ticks)
system.l2bus.respLayer0.utilization               0.0                       # Layer utilization (%)
system.clk_domain.clock                          1000                       # Clock period in ticks
system.clk_domain.voltage_domain.voltage            1                       # Voltage in Volts
system.cpu.pwrStateResidencyTicks::ON      2507131000                       # Cumulative time (in ticks) in various power states
system.cpu.icache.pwrStateResidencyTicks::UNDEFINED   2507131000                       # Cumulative time (in ticks) in various power states
system.cpu.icache.demand_hits::.cpu.inst       605155                       # number of demand (read+write) hits
system.cpu.icache.demand_hits::total           605155                       # number of demand (read+write) hits
system.cpu.icache.overall_hits::.cpu.inst       605155                       # number of overall hits
system.cpu.icache.overall_hits::total          605155                       # number of overall hits
system.cpu.icache.demand_misses::.cpu.inst          448                       # number of demand (read+write) misses
system.cpu.icache.demand_misses::total            448                       # number of demand (read+write) misses
system.cpu.icache.overall_misses::.cpu.inst          448                       # number of overall misses
system.cpu.icache.overall_misses::total           448                       # number of overall misses
system.cpu.icache.demand_miss_latency::.cpu.inst     48241000                       # number of demand (read+write) miss cycles
system.cpu.icache.demand_miss_latency::total     48241000                       # number of demand (read+write) miss cycles
system.cpu.icache.overall_miss_latency::.cpu.inst     48241000                       # number of overall miss cycles
system.cpu.icache.overall_miss_latency::total     48241000                       # number of overall miss cycles
system.cpu.icache.demand_accesses::.cpu.inst       605603                       # number of demand (read+write) accesses
system.cpu.icache.demand_accesses::total       605603                       # number of demand (read+write) accesses
system.cpu.icache.overall_accesses::.cpu.inst       605603                       # number of overall (read+write) accesses
system.cpu.icache.overall_accesses::total       605603                       # number of overall (read+write) accesses
system.cpu.icache.demand_miss_rate::.cpu.inst     0.000740                       # miss rate for demand accesses
system.cpu.icache.demand_miss_rate::total     0.000740                       # miss rate for demand accesses
system.cpu.icache.overall_miss_rate::.cpu.inst     0.000740                       # miss rate for overall accesses
system.cpu.icache.overall_miss_rate::total     0.000740                       # miss rate for overall accesses
system.cpu.icache.demand_avg_miss_latency::.cpu.inst 107680.803571                       # average overall miss latency
system.cpu.icache.demand_avg_miss_latency::total 107680.803571                       # average overall miss latency
system.cpu.icache.overall_avg_miss_latency::.cpu.inst 107680.803571                       # average overall miss latency
system.cpu.icache.overall_avg_miss_latency::total 107680.803571                       # average overall miss latency
system.cpu.icache.blocked_cycles::no_mshrs          132                       # number of cycles access was blocked
system.cpu.icache.blocked_cycles::no_targets            0                       # number of cycles access was blocked
system.cpu.icache.blocked::no_mshrs                 4                       # number of cycles access was blocked
system.cpu.icache.blocked::no_targets               0                       # number of cycles access was blocked
system.cpu.icache.avg_blocked_cycles::no_mshrs           33                       # average number of cycles each access was blocked
system.cpu.icache.avg_blocked_cycles::no_targets          nan                       # average number of cycles each access was blocked
system.cpu.icache.demand_mshr_hits::.cpu.inst          113                       # number of demand (read+write) MSHR hits
system.cpu.icache.demand_mshr_hits::total          113                       # number of demand (read+write) MSHR hits
system.cpu.icache.overall_mshr_hits::.cpu.inst          113                       # number of overall MSHR hits
system.cpu.icache.overall_mshr_hits::total          113                       # number of overall MSHR hits
system.cpu.icache.demand_mshr_misses::.cpu.inst          335                       # number of demand (read+write) MSHR misses
system.cpu.icache.demand_mshr_misses::total          335                       # number of demand (read+write) MSHR misses
system.cpu.icache.overall_mshr_misses::.cpu.inst          335                       # number of overall MSHR misses
system.cpu.icache.overall_mshr_misses::total          335                       # number of overall MSHR misses
system.cpu.icache.demand_mshr_miss_latency::.cpu.inst     37691000                       # number of demand (read+write) MSHR miss cycles
system.cpu.icache.demand_mshr_miss_latency::total     37691000                       # number of demand (read+write) MSHR miss cycles
system.cpu.icache.overall_mshr_miss_latency::.cpu.inst     37691000                       # number of overall MSHR miss cycles
system.cpu.icache.overall_mshr_miss_latency::total     37691000                       # number of overall MSHR miss cycles
system.cpu.icache.demand_mshr_miss_rate::.cpu.inst     0.000553                       # mshr miss rate for demand accesses
system.cpu.icache.demand_mshr_miss_rate::total     0.000553                       # mshr miss rate for demand accesses
system.cpu.icache.overall_mshr_miss_rate::.cpu.inst     0.000553                       # mshr miss rate for overall accesses
system.cpu.icache.overall_mshr_miss_rate::total     0.000553                       # mshr miss rate for overall accesses
system.cpu.icache.demand_avg_mshr_miss_latency::.cpu.inst 112510.447761                       # average overall mshr miss latency
system.cpu.icache.demand_avg_mshr_miss_latency::total 112510.447761                       # average overall mshr miss latency
system.cpu.icache.overall_avg_mshr_miss_latency::.cpu.inst 112510.447761                       # average overall mshr miss latency
system.cpu.icache.overall_avg_mshr_miss_latency::total 112510.447761                       # average overall mshr miss latency
system.cpu.icache.replacements                      0                       # number of replacements
system.cpu.icache.ReadReq_hits::.cpu.inst       605155                       # number of ReadReq hits
system.cpu.icache.ReadReq_hits::total          605155                       # number of ReadReq hits
system.cpu.icache.ReadReq_misses::.cpu.inst          448                       # number of ReadReq misses
system.cpu.icache.ReadReq_misses::total           448                       # number of ReadReq misses
system.cpu.icache.ReadReq_miss_latency::.cpu.inst     48241000                       # number of ReadReq miss cycles
system.cpu.icache.ReadReq_miss_latency::total     48241000                       # number of ReadReq miss cycles
system.cpu.icache.ReadReq_accesses::.cpu.inst       605603                       # number of ReadReq accesses(hits+misses)
system.cpu.icache.ReadReq_accesses::total       605603                       # number of ReadReq accesses(hits+misses)
system.cpu.icache.ReadReq_miss_rate::.cpu.inst     0.000740                       # miss rate for ReadReq accesses
system.cpu.icache.ReadReq_miss_rate::total     0.000740                       # miss rate for ReadReq accesses
system.cpu.icache.ReadReq_avg_miss_latency::.cpu.inst 107680.803571                       # average ReadReq miss latency
system.cpu.icache.ReadReq_avg_miss_latency::total 107680.803571                       # average ReadReq miss latency
system.cpu.icache.ReadReq_mshr_hits::.cpu.inst          113                       # number of ReadReq MSHR hits
system.cpu.icache.ReadReq_mshr_hits::total          113                       # number of ReadReq MSHR hits
system.cpu.icache.ReadReq_mshr_misses::.cpu.inst          335                       # number of ReadReq MSHR misses
system.cpu.icache.ReadReq_mshr_misses::total          335                       # number of ReadReq MSHR misses
system.cpu.icache.ReadReq_mshr_miss_latency::.cpu.inst     37691000                       # number of ReadReq MSHR miss cycles
system.cpu.icache.ReadReq_mshr_miss_latency::total     37691000                       # number of ReadReq MSHR miss cycles
system.cpu.icache.ReadReq_mshr_miss_rate::.cpu.inst     0.000553                       # mshr miss rate for ReadReq accesses
system.cpu.icache.ReadReq_mshr_miss_rate::total     0.000553                       # mshr miss rate for ReadReq accesses
system.cpu.icache.ReadReq_avg_mshr_miss_latency::.cpu.inst 112510.447761                       # average ReadReq mshr miss latency
system.cpu.icache.ReadReq_avg_mshr_miss_latency::total 112510.447761                       # average ReadReq mshr miss latency
system.cpu.icache.tags.pwrStateResidencyTicks::UNDEFINED   2507131000                       # Cumulative time (in ticks) in various power states
system.cpu.icache.tags.tagsinuse           308.745527                       # Cycle average of tags in use
system.cpu.icache.tags.total_refs              605489                       # Total number of references to valid blocks.
system.cpu.icache.tags.sampled_refs               334                       # Sample count of references to valid blocks.
system.cpu.icache.tags.avg_refs           1812.841317                       # Average number of references to valid blocks.
system.cpu.icache.tags.warmup_cycle            112000                       # Cycle when the warmup percentage was hit.
system.cpu.icache.tags.occ_blocks::.cpu.inst   308.745527                       # Average occupied blocks per requestor
system.cpu.icache.tags.occ_percent::.cpu.inst     0.150755                       # Average percentage of cache occupancy
system.cpu.icache.tags.occ_percent::total     0.150755                       # Average percentage of cache occupancy
system.cpu.icache.tags.occ_task_id_blocks::1024          334                       # Occupied blocks per task id
system.cpu.icache.tags.age_task_id_blocks_1024::0           23                       # Occupied blocks per task id
system.cpu.icache.tags.age_task_id_blocks_1024::3          311                       # Occupied blocks per task id
system.cpu.icache.tags.occ_task_id_percent::1024     0.163086                       # Percentage of cache occupancy per task id
system.cpu.icache.tags.tag_accesses           1211540                       # Number of tag accesses
system.cpu.icache.tags.data_accesses          1211540                       # Number of data accesses
system.cpu.dtb.walker.pwrStateResidencyTicks::UNDEFINED   2507131000                       # Cumulative time (in ticks) in various power states
system.cpu.interrupts.clk_domain.clock          16000                       # Clock period in ticks
system.cpu.itb.walker.pwrStateResidencyTicks::UNDEFINED   2507131000                       # Cumulative time (in ticks) in various power states
system.cpu.dcache.pwrStateResidencyTicks::UNDEFINED   2507131000                       # Cumulative time (in ticks) in various power states
system.cpu.dcache.demand_hits::.cpu.data       815497                       # number of demand (read+write) hits
system.cpu.dcache.demand_hits::total           815497                       # number of demand (read+write) hits
system.cpu.dcache.overall_hits::.cpu.data       815497                       # number of overall hits
system.cpu.dcache.overall_hits::total          815497                       # number of overall hits
system.cpu.dcache.demand_misses::.cpu.data         2799                       # number of demand (read+write) misses
system.cpu.dcache.demand_misses::total           2799                       # number of demand (read+write) misses
system.cpu.dcache.overall_misses::.cpu.data         2799                       # number of overall misses
system.cpu.dcache.overall_misses::total          2799                       # number of overall misses
system.cpu.dcache.demand_miss_latency::.cpu.data    292652000                       # number of demand (read+write) miss cycles
system.cpu.dcache.demand_miss_latency::total    292652000                       # number of demand (read+write) miss cycles
system.cpu.dcache.overall_miss_latency::.cpu.data    292652000                       # number of overall miss cycles
system.cpu.dcache.overall_miss_latency::total    292652000                       # number of overall miss cycles
system.cpu.dcache.demand_accesses::.cpu.data       818296                       # number of demand (read+write) accesses
system.cpu.dcache.demand_accesses::total       818296                       # number of demand (read+write) accesses
system.cpu.dcache.overall_accesses::.cpu.data       818296                       # number of overall (read+write) accesses
system.cpu.dcache.overall_accesses::total       818296                       # number of overall (read+write) accesses
system.cpu.dcache.demand_miss_rate::.cpu.data     0.003421                       # miss rate for demand accesses
system.cpu.dcache.demand_miss_rate::total     0.003421                       # miss rate for demand accesses
system.cpu.dcache.overall_miss_rate::.cpu.data     0.003421                       # miss rate for overall accesses
system.cpu.dcache.overall_miss_rate::total     0.003421                       # miss rate for overall accesses
system.cpu.dcache.demand_avg_miss_latency::.cpu.data 104555.912826                       # average overall miss latency
system.cpu.dcache.demand_avg_miss_latency::total 104555.912826                       # average overall miss latency
system.cpu.dcache.overall_avg_miss_latency::.cpu.data 104555.912826                       # average overall miss latency
system.cpu.dcache.overall_avg_miss_latency::total 104555.912826                       # average overall miss latency
system.cpu.dcache.blocked_cycles::no_mshrs          244                       # number of cycles access was blocked
system.cpu.dcache.blocked_cycles::no_targets            0                       # number of cycles access was blocked
system.cpu.dcache.blocked::no_mshrs                 7                       # number of cycles access was blocked
system.cpu.dcache.blocked::no_targets               0                       # number of cycles access was blocked
system.cpu.dcache.avg_blocked_cycles::no_mshrs    34.857143                       # average number of cycles each access was blocked
system.cpu.dcache.avg_blocked_cycles::no_targets          nan                       # average number of cycles each access was blocked
system.cpu.dcache.writebacks::.writebacks            5                       # number of writebacks
system.cpu.dcache.writebacks::total                 5                       # number of writebacks
system.cpu.dcache.demand_mshr_hits::.cpu.data         1606                       # number of demand (read+write) MSHR hits
system.cpu.dcache.demand_mshr_hits::total         1606                       # number of demand (read+write) MSHR hits
system.cpu.dcache.overall_mshr_hits::.cpu.data         1606                       # number of overall MSHR hits
system.cpu.dcache.overall_mshr_hits::total         1606                       # number of overall MSHR hits
system.cpu.dcache.demand_mshr_misses::.cpu.data         1193                       # number of demand (read+write) MSHR misses
system.cpu.dcache.demand_mshr_misses::total         1193                       # number of demand (read+write) MSHR misses
system.cpu.dcache.overall_mshr_misses::.cpu.data         1193                       # number of overall MSHR misses
system.cpu.dcache.overall_mshr_misses::total         1193                       # number of overall MSHR misses
system.cpu.dcache.demand_mshr_miss_latency::.cpu.data    141005000                       # number of demand (read+write) MSHR miss cycles
system.cpu.dcache.demand_mshr_miss_latency::total    141005000                       # number of demand (read+write) MSHR miss cycles
system.cpu.dcache.overall_mshr_miss_latency::.cpu.data    141005000                       # number of overall MSHR miss cycles
system.cpu.dcache.overall_mshr_miss_latency::total    141005000                       # number of overall MSHR miss cycles
system.cpu.dcache.demand_mshr_miss_rate::.cpu.data     0.001458                       # mshr miss rate for demand accesses
system.cpu.dcache.demand_mshr_miss_rate::total     0.001458                       # mshr miss rate for demand accesses
system.cpu.dcache.overall_mshr_miss_rate::.cpu.data     0.001458                       # mshr miss rate for overall accesses
system.cpu.dcache.overall_mshr_miss_rate::total     0.001458                       # mshr miss rate for overall accesses
system.cpu.dcache.demand_avg_mshr_miss_latency::.cpu.data 118193.629505                       # average overall mshr miss latency
system.cpu.dcache.demand_avg_mshr_miss_latency::total 118193.629505                       # average overall mshr miss latency
system.cpu.dcache.overall_avg_mshr_miss_latency::.cpu.data 118193.629505                       # average overall mshr miss latency
system.cpu.dcache.overall_avg_mshr_miss_latency::total 118193.629505                       # average overall mshr miss latency
system.cpu.dcache.replacements                     22                       # number of replacements
system.cpu.dcache.ReadReq_hits::.cpu.data       487236                       # number of ReadReq hits
system.cpu.dcache.ReadReq_hits::total          487236                       # number of ReadReq hits
system.cpu.dcache.ReadReq_misses::.cpu.data         2214                       # number of ReadReq misses
system.cpu.dcache.ReadReq_misses::total          2214                       # number of ReadReq misses
system.cpu.dcache.ReadReq_miss_latency::.cpu.data    226461000                       # number of ReadReq miss cycles
system.cpu.dcache.ReadReq_miss_latency::total    226461000                       # number of ReadReq miss cycles
system.cpu.dcache.ReadReq_accesses::.cpu.data       489450                       # number of ReadReq accesses(hits+misses)
system.cpu.dcache.ReadReq_accesses::total       489450                       # number of ReadReq accesses(hits+misses)
system.cpu.dcache.ReadReq_miss_rate::.cpu.data     0.004523                       # miss rate for ReadReq accesses
system.cpu.dcache.ReadReq_miss_rate::total     0.004523                       # miss rate for ReadReq accesses
system.cpu.dcache.ReadReq_avg_miss_latency::.cpu.data 102285.907859                       # average ReadReq miss latency
system.cpu.dcache.ReadReq_avg_miss_latency::total 102285.907859                       # average ReadReq miss latency
system.cpu.dcache.ReadReq_mshr_hits::.cpu.data         1559                       # number of ReadReq MSHR hits
system.cpu.dcache.ReadReq_mshr_hits::total         1559                       # number of ReadReq MSHR hits
system.cpu.dcache.ReadReq_mshr_misses::.cpu.data          655                       # number of ReadReq MSHR misses
system.cpu.dcache.ReadReq_mshr_misses::total          655                       # number of ReadReq MSHR misses
system.cpu.dcache.ReadReq_mshr_miss_latency::.cpu.data     77955000                       # number of ReadReq MSHR miss cycles
system.cpu.dcache.ReadReq_mshr_miss_latency::total     77955000                       # number of ReadReq MSHR miss cycles
system.cpu.dcache.ReadReq_mshr_miss_rate::.cpu.data     0.001338                       # mshr miss rate for ReadReq accesses
system.cpu.dcache.ReadReq_mshr_miss_rate::total     0.001338                       # mshr miss rate for ReadReq accesses
system.cpu.dcache.ReadReq_avg_mshr_miss_latency::.cpu.data 119015.267176                       # average ReadReq mshr miss latency
system.cpu.dcache.ReadReq_avg_mshr_miss_latency::total 119015.267176                       # average ReadReq mshr miss latency
system.cpu.dcache.WriteReq_hits::.cpu.data       328261                       # number of WriteReq hits
system.cpu.dcache.WriteReq_hits::total         328261                       # number of WriteReq hits
system.cpu.dcache.WriteReq_misses::.cpu.data          585                       # number of WriteReq misses
system.cpu.dcache.WriteReq_misses::total          585                       # number of WriteReq misses
system.cpu.dcache.WriteReq_miss_latency::.cpu.data     66191000                       # number of WriteReq miss cycles
system.cpu.dcache.WriteReq_miss_latency::total     66191000                       # number of WriteReq miss cycles
system.cpu.dcache.WriteReq_accesses::.cpu.data       328846                       # number of WriteReq accesses(hits+misses)
system.cpu.dcache.WriteReq_accesses::total       328846                       # number of WriteReq accesses(hits+misses)
system.cpu.dcache.WriteReq_miss_rate::.cpu.data     0.001779                       # miss rate for WriteReq accesses
system.cpu.dcache.WriteReq_miss_rate::total     0.001779                       # miss rate for WriteReq accesses
system.cpu.dcache.WriteReq_avg_miss_latency::.cpu.data 113147.008547                       # average WriteReq miss latency
system.cpu.dcache.WriteReq_avg_miss_latency::total 113147.008547                       # average WriteReq miss latency
system.cpu.dcache.WriteReq_mshr_hits::.cpu.data           47                       # number of WriteReq MSHR hits
system.cpu.dcache.WriteReq_mshr_hits::total           47                       # number of WriteReq MSHR hits
system.cpu.dcache.WriteReq_mshr_misses::.cpu.data          538                       # number of WriteReq MSHR misses
system.cpu.dcache.WriteReq_mshr_misses::total          538                       # number of WriteReq MSHR misses
system.cpu.dcache.WriteReq_mshr_miss_latency::.cpu.data     63050000                       # number of WriteReq MSHR miss cycles
system.cpu.dcache.WriteReq_mshr_miss_latency::total     63050000                       # number of WriteReq MSHR miss cycles
system.cpu.dcache.WriteReq_mshr_miss_rate::.cpu.data     0.001636                       # mshr miss rate for WriteReq accesses
system.cpu.dcache.WriteReq_mshr_miss_rate::total     0.001636                       # mshr miss rate for WriteReq accesses
system.cpu.dcache.WriteReq_avg_mshr_miss_latency::.cpu.data 117193.308550                       # average WriteReq mshr miss latency
system.cpu.dcache.WriteReq_avg_mshr_miss_latency::total 117193.308550                       # average WriteReq mshr miss latency
system.cpu.dcache.tags.pwrStateResidencyTicks::UNDEFINED   2507131000                       # Cumulative time (in ticks) in various power states
system.cpu.dcache.tags.tagsinuse           707.556637                       # Cycle average of tags in use
system.cpu.dcache.tags.total_refs              816690                       # Total number of references to valid blocks.
system.cpu.dcache.tags.sampled_refs              1193                       # Sample count of references to valid blocks.
system.cpu.dcache.tags.avg_refs            684.568315                       # Average number of references to valid blocks.
system.cpu.dcache.tags.warmup_cycle            232000                       # Cycle when the warmup percentage was hit.
system.cpu.dcache.tags.occ_blocks::.cpu.data   707.556637                       # Average occupied blocks per requestor
system.cpu.dcache.tags.occ_percent::.cpu.data     0.345487                       # Average percentage of cache occupancy
system.cpu.dcache.tags.occ_percent::total     0.345487                       # Average percentage of cache occupancy
system.cpu.dcache.tags.occ_task_id_blocks::1024         1171                       # Occupied blocks per task id
system.cpu.dcache.tags.age_task_id_blocks_1024::0           22                       # Occupied blocks per task id
system.cpu.dcache.tags.age_task_id_blocks_1024::2          350                       # Occupied blocks per task id
system.cpu.dcache.tags.age_task_id_blocks_1024::3          799                       # Occupied blocks per task id
system.cpu.dcache.tags.occ_task_id_percent::1024     0.571777                       # Percentage of cache occupancy per task id
system.cpu.dcache.tags.tag_accesses           1637785                       # Number of tag accesses
system.cpu.dcache.tags.data_accesses          1637785                       # Number of data accesses
system.l2cache.pwrStateResidencyTicks::UNDEFINED   2507131000                       # Cumulative time (in ticks) in various power states
system.l2cache.demand_hits::.cpu.inst               1                       # number of demand (read+write) hits
system.l2cache.demand_hits::total                   1                       # number of demand (read+write) hits
system.l2cache.overall_hits::.cpu.inst              1                       # number of overall hits
system.l2cache.overall_hits::total                  1                       # number of overall hits
system.l2cache.demand_misses::.cpu.inst           334                       # number of demand (read+write) misses
system.l2cache.demand_misses::.cpu.data          1193                       # number of demand (read+write) misses
system.l2cache.demand_misses::total              1527                       # number of demand (read+write) misses
system.l2cache.overall_misses::.cpu.inst          334                       # number of overall misses
system.l2cache.overall_misses::.cpu.data         1193                       # number of overall misses
system.l2cache.overall_misses::total             1527                       # number of overall misses
system.l2cache.demand_miss_latency::.cpu.inst     36665000                       # number of demand (read+write) miss cycles
system.l2cache.demand_miss_latency::.cpu.data    137425000                       # number of demand (read+write) miss cycles
system.l2cache.demand_miss_latency::total    174090000                       # number of demand (read+write) miss cycles
system.l2cache.overall_miss_latency::.cpu.inst     36665000                       # number of overall miss cycles
system.l2cache.overall_miss_latency::.cpu.data    137425000                       # number of overall miss cycles
system.l2cache.overall_miss_latency::total    174090000                       # number of overall miss cycles
system.l2cache.demand_accesses::.cpu.inst          335                       # number of demand (read+write) accesses
system.l2cache.demand_accesses::.cpu.data         1193                       # number of demand (read+write) accesses
system.l2cache.demand_accesses::total            1528                       # number of demand (read+write) accesses
system.l2cache.overall_accesses::.cpu.inst          335                       # number of overall (read+write) accesses
system.l2cache.overall_accesses::.cpu.data         1193                       # number of overall (read+write) accesses
[...]
system.mem_ctrl.readPktSize::3                      0                       # Read request sizes (log2)
system.mem_ctrl.readPktSize::4                      0                       # Read request sizes (log2)
system.mem_ctrl.readPktSize::5                   3052                       # Read request sizes (log2)
system.mem_ctrl.writePktSize::0                     0                       # Write request sizes (log2)
system.mem_ctrl.writePktSize::1                     0                       # Write request sizes (log2)
system.mem_ctrl.writePktSize::2                     0                       # Write request sizes (log2)
system.mem_ctrl.writePktSize::3                     0                       # Write request sizes (log2)
system.mem_ctrl.writePktSize::4                     0                       # Write request sizes (log2)
system.mem_ctrl.writePktSize::5                     0                       # Write request sizes (log2)
system.mem_ctrl.rdQLenPdf::0                     1315                       # What read queue length does an incoming req see
system.mem_ctrl.rdQLenPdf::1                     1319                       # What read queue length does an incoming req see
system.mem_ctrl.rdQLenPdf::2                      146                       # What read queue length does an incoming req see
system.mem_ctrl.rdQLenPdf::3                      146                       # What read queue length does an incoming req see
system.mem_ctrl.rdQLenPdf::4                       50                       # What read queue length does an incoming req see
system.mem_ctrl.rdQLenPdf::5                       48                       # What read queue length does an incoming req see
system.mem_ctrl.rdQLenPdf::6                       13                       # What read queue length does an incoming req see
system.mem_ctrl.rdQLenPdf::7                       11                       # What read queue length does an incoming req see
system.mem_ctrl.rdQLenPdf::8                        2                       # What read queue length does an incoming req see
system.mem_ctrl.rdQLenPdf::9                        2                       # What read queue length does an incoming req see
system.mem_ctrl.rdQLenPdf::10                       0                       # What read queue length does an incoming req see
system.mem_ctrl.rdQLenPdf::11                       0                       # What read queue length does an incoming req see
system.mem_ctrl.rdQLenPdf::12                       0                       # What read queue length does an incoming req see
system.mem_ctrl.rdQLenPdf::13                       0                       # What read queue length does an incoming req see
system.mem_ctrl.rdQLenPdf::14                       0                       # What read queue length does an incoming req see
system.mem_ctrl.rdQLenPdf::15                       0                       # What read queue length does an incoming req see
system.mem_ctrl.rdQLenPdf::16                       0                       # What read queue length does an incoming req see
system.mem_ctrl.rdQLenPdf::17                       0                       # What read queue length does an incoming req see
system.mem_ctrl.rdQLenPdf::18                       0                       # What read queue length does an incoming req see
system.mem_ctrl.rdQLenPdf::19                       0                       # What read queue length does an incoming req see
system.mem_ctrl.rdQLenPdf::20                       0                       # What read queue length does an incoming req see
system.mem_ctrl.rdQLenPdf::21                       0                       # What read queue length does an incoming req see
system.mem_ctrl.rdQLenPdf::22                       0                       # What read queue length does an incoming req see
system.mem_ctrl.rdQLenPdf::23                       0                       # What read queue length does an incoming req see
system.mem_ctrl.rdQLenPdf::24                       0                       # What read queue length does an incoming req see
system.mem_ctrl.rdQLenPdf::25                       0                       # What read queue length does an incoming req see
system.mem_ctrl.rdQLenPdf::26                       0                       # What read queue length does an incoming req see
system.mem_ctrl.rdQLenPdf::27                       0                       # What read queue length does an incoming req see
system.mem_ctrl.rdQLenPdf::28                       0                       # What read queue length does an incoming req see
system.mem_ctrl.rdQLenPdf::29                       0                       # What read queue length does an incoming req see
system.mem_ctrl.rdQLenPdf::30                       0                       # What read queue length does an incoming req see
system.mem_ctrl.rdQLenPdf::31                       0                       # What read queue length does an incoming req see
system.mem_ctrl.wrQLenPdf::0                        0                       # What write queue length does an incoming req see
system.mem_ctrl.wrQLenPdf::1                        0                       # What write queue length does an incoming req see
system.mem_ctrl.wrQLenPdf::2                        0                       # What write queue length does an incoming req see
system.mem_ctrl.wrQLenPdf::3                        0                       # What write queue length does an incoming req see
system.mem_ctrl.wrQLenPdf::4                        0                       # What write queue length does an incoming req see
system.mem_ctrl.wrQLenPdf::5                        0                       # What write queue length does an incoming req see
system.mem_ctrl.wrQLenPdf::6                        0                       # What write queue length does an incoming req see
system.mem_ctrl.wrQLenPdf::7                        0                       # What write queue length does an incoming req see
system.mem_ctrl.wrQLenPdf::8                        0                       # What write queue length does an incoming req see
system.mem_ctrl.wrQLenPdf::9                        0                       # What write queue length does an incoming req see
system.mem_ctrl.wrQLenPdf::10                       0                       # What write queue length does an incoming req see
system.mem_ctrl.wrQLenPdf::11                       0                       # What write queue length does an incoming req see
system.mem_ctrl.wrQLenPdf::12                       0                       # What write queue length does an incoming req see
system.mem_ctrl.wrQLenPdf::13                       0                       # What write queue length does an incoming req see
system.mem_ctrl.wrQLenPdf::14                       0                       # What write queue length does an incoming req see
system.mem_ctrl.wrQLenPdf::15                       0                       # What write queue length does an incoming req see
system.mem_ctrl.wrQLenPdf::16                       0                       # What write queue length does an incoming req see
system.mem_ctrl.wrQLenPdf::17                       0                       # What write queue length does an incoming req see
system.mem_ctrl.wrQLenPdf::18                       0                       # What write queue length does an incoming req see
system.mem_ctrl.wrQLenPdf::19                       0                       # What write queue length does an incoming req see
system.mem_ctrl.wrQLenPdf::20                       0                       # What write queue length does an incoming req see
system.mem_ctrl.wrQLenPdf::21                       0                       # What write queue length does an incoming req see
system.mem_ctrl.wrQLenPdf::22                       0                       # What write queue length does an incoming req see
system.mem_ctrl.wrQLenPdf::23                       0                       # What write queue length does an incoming req see
system.mem_ctrl.wrQLenPdf::24                       0                       # What write queue length does an incoming req see
system.mem_ctrl.wrQLenPdf::25                       0                       # What write queue length does an incoming req see
system.mem_ctrl.wrQLenPdf::26                       0                       # What write queue length does an incoming req see
system.mem_ctrl.wrQLenPdf::27                       0                       # What write queue length does an incoming req see
system.mem_ctrl.wrQLenPdf::28                       0                       # What write queue length does an incoming req see
system.mem_ctrl.wrQLenPdf::29                       0                       # What write queue length does an incoming req see
system.mem_ctrl.wrQLenPdf::30                       0                       # What write queue length does an incoming req see
system.mem_ctrl.wrQLenPdf::31                       0                       # What write queue length does an incoming req see
system.mem_ctrl.wrQLenPdf::32                       0                       # What write queue length does an incoming req see
system.mem_ctrl.wrQLenPdf::33                       0                       # What write queue length does an incoming req see
system.mem_ctrl.wrQLenPdf::34                       0                       # What write queue length does an incoming req see
system.mem_ctrl.wrQLenPdf::35                       0                       # What write queue length does an incoming req see
system.mem_ctrl.wrQLenPdf::36                       0                       # What write queue length does an incoming req see
system.mem_ctrl.wrQLenPdf::37                       0                       # What write queue length does an incoming req see
system.mem_ctrl.wrQLenPdf::38                       0                       # What write queue length does an incoming req see
system.mem_ctrl.wrQLenPdf::39                       0                       # What write queue length does an incoming req see
system.mem_ctrl.wrQLenPdf::40                       0                       # What write queue length does an incoming req see
system.mem_ctrl.wrQLenPdf::41                       0                       # What write queue length does an incoming req see
system.mem_ctrl.wrQLenPdf::42                       0                       # What write queue length does an incoming req see
system.mem_ctrl.wrQLenPdf::43                       0                       # What write queue length does an incoming req see
system.mem_ctrl.wrQLenPdf::44                       0                       # What write queue length does an incoming req see
system.mem_ctrl.wrQLenPdf::45                       0                       # What write queue length does an incoming req see
system.mem_ctrl.wrQLenPdf::46                       0                       # What write queue length does an incoming req see
system.mem_ctrl.wrQLenPdf::47                       0                       # What write queue length does an incoming req see
system.mem_ctrl.wrQLenPdf::48                       0                       # What write queue length does an incoming req see
system.mem_ctrl.wrQLenPdf::49                       0                       # What write queue length does an incoming req see
system.mem_ctrl.wrQLenPdf::50                       0                       # What write queue length does an incoming req see
system.mem_ctrl.wrQLenPdf::51                       0                       # What write queue length does an incoming req see
system.mem_ctrl.wrQLenPdf::52                       0                       # What write queue length does an incoming req see
system.mem_ctrl.wrQLenPdf::53                       0                       # What write queue length does an incoming req see
system.mem_ctrl.wrQLenPdf::54                       0                       # What write queue length does an incoming req see
system.mem_ctrl.wrQLenPdf::55                       0                       # What write queue length does an incoming req see
system.mem_ctrl.wrQLenPdf::56                       0                       # What write queue length does an incoming req see
system.mem_ctrl.wrQLenPdf::57                       0                       # What write queue length does an incoming req see
system.mem_ctrl.wrQLenPdf::58                       0                       # What write queue length does an incoming req see
system.mem_ctrl.wrQLenPdf::59                       0                       # What write queue length does an incoming req see
system.mem_ctrl.wrQLenPdf::60                       0                       # What write queue length does an incoming req see
system.mem_ctrl.wrQLenPdf::61                       0                       # What write queue length does an incoming req see
system.mem_ctrl.wrQLenPdf::62                       0                       # What write queue length does an incoming req see
system.mem_ctrl.wrQLenPdf::63                       0                       # What write queue length does an incoming req see
system.mem_ctrl.bytesPerActivate::samples          949                       # Bytes accessed per row activation
system.mem_ctrl.bytesPerActivate::mean     101.833509                       # Bytes accessed per row activation
system.mem_ctrl.bytesPerActivate::gmean     88.983225                       # Bytes accessed per row activation
system.mem_ctrl.bytesPerActivate::stdev     71.383862                       # Bytes accessed per row activation
system.mem_ctrl.bytesPerActivate::64-127          573     60.38%     60.38% # Bytes accessed per row activation
system.mem_ctrl.bytesPerActivate::128-191          316     33.30%     93.68% # Bytes accessed per row activation
system.mem_ctrl.bytesPerActivate::192-255           17      1.79%     95.47% # Bytes accessed per row activation
system.mem_ctrl.bytesPerActivate::256-319            9      0.95%     96.42% # Bytes accessed per row activation
system.mem_ctrl.bytesPerActivate::320-383           10      1.05%     97.47% # Bytes accessed per row activation
system.mem_ctrl.bytesPerActivate::384-447           11      1.16%     98.63% # Bytes accessed per row activation
system.mem_ctrl.bytesPerActivate::448-511            2      0.21%     98.84% # Bytes accessed per row activation
system.mem_ctrl.bytesPerActivate::512-575           11      1.16%    100.00% # Bytes accessed per row activation
system.mem_ctrl.bytesPerActivate::total           949                       # Bytes accessed per row activation
system.mem_ctrl.bytesReadDRAM                   97664                       # Total number of bytes read from DRAM
system.mem_ctrl.bytesReadWrQ                        0                       # Total number of bytes read from write queue
system.mem_ctrl.bytesWritten                        0                       # Total number of bytes written to DRAM
system.mem_ctrl.bytesReadSys                    97664                       # Total read bytes from the system interface side
system.mem_ctrl.bytesWrittenSys                     0                       # Total written bytes from the system interface side
system.mem_ctrl.avgRdBW                         38.95                       # Average DRAM read bandwidth in MiByte/s
system.mem_ctrl.avgWrBW                          0.00                       # Average achieved write bandwidth in MiByte/s
system.mem_ctrl.avgRdBWSys                      38.95                       # Average system read bandwidth in MiByte/s
system.mem_ctrl.avgWrBWSys                       0.00                       # Average system write bandwidth in MiByte/s
system.mem_ctrl.peakBW                        8000.00                       # Theoretical peak bandwidth in MiByte/s
system.mem_ctrl.busUtil                          0.49                       # Data bus utilization in percentage
system.mem_ctrl.busUtilRead                      0.49                       # Data bus utilization in percentage for reads
system.mem_ctrl.busUtilWrite                     0.00                       # Data bus utilization in percentage for writes
system.mem_ctrl.totGap                     2507005000                       # Total gap between requests
system.mem_ctrl.avgGap                     1642860.42                       # Average gap between requests
system.mem_ctrl.masterReadBytes::.cpu.inst        21312                       # Per-master bytes read from memory
system.mem_ctrl.masterReadBytes::.cpu.data        76352                       # Per-master bytes read from memory
system.mem_ctrl.masterReadRate::.cpu.inst 8500553.022558454424                       # Per-master bytes read from memory rate (Bytes/sec)
system.mem_ctrl.masterReadRate::.cpu.data 30453933.200937643647                       # Per-master bytes read from memory rate (Bytes/sec)
system.mem_ctrl.masterReadAccesses::.cpu.inst          666                       # Per-master read serviced memory accesses
system.mem_ctrl.masterReadAccesses::.cpu.data         2386                       # Per-master read serviced memory accesses
system.mem_ctrl.masterReadTotalLat::.cpu.inst     24707000                       # Per-master read total memory access latency
system.mem_ctrl.masterReadTotalLat::.cpu.data    100664000                       # Per-master read total memory access latency
system.mem_ctrl.masterReadAvgLat::.cpu.inst     37097.60                       # Per-master read average memory access latency
system.mem_ctrl.masterReadAvgLat::.cpu.data     42189.44                       # Per-master read average memory access latency
system.mem_ctrl.pageHitRate                     68.68                       # Row buffer hit rate, read and write combined
system.mem_ctrl.rank0.actEnergy                     0                       # Energy for activate commands per rank (pJ)
system.mem_ctrl.rank0.preEnergy                     0                       # Energy for precharge commands per rank (pJ)
system.mem_ctrl.rank0.readEnergy                    0                       # Energy for read commands per rank (pJ)
system.mem_ctrl.rank0.writeEnergy                   0                       # Energy for write commands per rank (pJ)
system.mem_ctrl.rank0.refreshEnergy                 0                       # Energy for refresh commands per rank (pJ)
system.mem_ctrl.rank0.actBackEnergy                 0                       # Energy for active background per rank (pJ)
system.mem_ctrl.rank0.preBackEnergy                 0                       # Energy for precharge background per rank (pJ)
system.mem_ctrl.rank0.actPowerDownEnergy            0                       # Energy for active power-down per rank (pJ)
system.mem_ctrl.rank0.prePowerDownEnergy            0                       # Energy for precharge power-down per rank (pJ)
system.mem_ctrl.rank0.selfRefreshEnergy             0                       # Energy for self refresh per rank (pJ)
system.mem_ctrl.rank0.totalEnergy                   0                       # Total energy per rank (pJ)
system.mem_ctrl.rank0.averagePower                  0                       # Core power per rank (mW)
system.mem_ctrl.rank0.totalIdleTime                 0                       # Total Idle time Per DRAM Rank
system.mem_ctrl.rank0.memoryStateTime::IDLE   1330475500                       # Time in different power states
system.mem_ctrl.rank0.memoryStateTime::REF    167700000                       # Time in different power states
system.mem_ctrl.rank0.memoryStateTime::SREF            0                       # Time in different power states
system.mem_ctrl.rank0.memoryStateTime::PRE_PDN            0                       # Time in different power states
system.mem_ctrl.rank0.memoryStateTime::ACT   1008955500                       # Time in different power states
system.mem_ctrl.rank0.memoryStateTime::ACT_PDN            0                       # Time in different power states

---------- End Simulation Statistics   ----------
