
---------- Begin Simulation Statistics ----------
final_tick                                 7155485750                       # Number of ticks from beginning of simulation (restored from checkpoints and never reset)
host_inst_rate                                 121179                       # Simulator instruction rate (inst/s)
host_mem_usage                                 798932                       # Number of bytes of host memory used
host_op_rate                                   241319                       # Simulator op (including micro ops) rate (op/s)
host_seconds                                    92.28                       # Real time elapsed on the host
host_tick_rate                               77536950                       # Simulator tick rate (ticks/s)
sim_freq                                 1000000000000                       # Frequency of simulated ticks
sim_insts                                    11182921                       # Number of instructions simulated
sim_ops                                      22270118                       # Number of ops (including micro ops) simulated
sim_seconds                                  0.007155                       # Number of seconds simulated
sim_ticks                                  7155485750                       # Number of ticks simulated
system.cpu.branchPred.BTBCorrect                    0                       # Number of correct BTB predictions (this stat may not work properly.
system.cpu.branchPred.BTBHitPct              0.000000                       # BTB Hit Percentage
system.cpu.branchPred.BTBHits                       0                       # Number of BTB hits
system.cpu.branchPred.BTBLookups              1628950                       # Number of BTB lookups
system.cpu.branchPred.RASInCorrect                  1                       # Number of incorrect RAS predictions.
system.cpu.branchPred.condIncorrect             25377                       # Number of conditional branches incorrect
system.cpu.branchPred.condPredicted           1653663                       # Number of conditional branches predicted
system.cpu.branchPred.indirectHits            1626140                       # Number of indirect target hits.
system.cpu.branchPred.indirectLookups         1628950                       # Number of indirect predictor lookups.
system.cpu.branchPred.indirectMisses             2810                       # Number of indirect misses.
system.cpu.branchPred.lookups                 1655151                       # Number of BP lookups
system.cpu.branchPred.usedRAS                     648                       # Number of times the RAS was used to get a target.
system.cpu.branchPredindirectMispredicted          537                       # Number of mispredicted indirect branches.
system.cpu.cc_regfile_reads                   8032703                       # number of cc regfile reads
system.cpu.cc_regfile_writes                  6530699                       # number of cc regfile writes
system.cpu.commit.amos                              0                       # Number of atomic instructions committed
system.cpu.commit.branchMispredicts             25378                       # The number of times a branch was mispredicted
system.cpu.commit.branches                    1598763                       # Number of branches committed
system.cpu.commit.bw_lim_events               2177634                       # number cycles where commit BW limit reached
system.cpu.commit.commitNonSpecStalls               8                       # The number of times commit has been forced to stall to communicate backwards
system.cpu.commit.commitSquashedInsts          320291                       # The number of squashed insts skipped by commit
system.cpu.commit.committedInsts             11182921                       # Number of instructions committed
system.cpu.commit.committedOps               22270118                       # Number of ops (including micro ops) committed
system.cpu.commit.committed_per_cycle::samples     28539990                       # Number of insts commited each cycle
system.cpu.commit.committed_per_cycle::mean     0.780313                       # Number of insts commited each cycle
system.cpu.commit.committed_per_cycle::stdev     2.209133                       # Number of insts commited each cycle
system.cpu.commit.committed_per_cycle::underflows            0      0.00%      0.00% # Number of insts commited each cycle
system.cpu.commit.committed_per_cycle::0     24232098     84.91%     84.91% # Number of insts commited each cycle
system.cpu.commit.committed_per_cycle::1      1251603      4.39%     89.29% # Number of insts commited each cycle
system.cpu.commit.committed_per_cycle::2       136093      0.48%     89.77% # Number of insts commited each cycle
system.cpu.commit.committed_per_cycle::3        90390      0.32%     90.08% # Number of insts commited each cycle
system.cpu.commit.committed_per_cycle::4       310351      1.09%     91.17% # Number of insts commited each cycle
system.cpu.commit.committed_per_cycle::5       254200      0.89%     92.06% # Number of insts commited each cycle
system.cpu.commit.committed_per_cycle::6        71664      0.25%     92.31% # Number of insts commited each cycle
system.cpu.commit.committed_per_cycle::7        15957      0.06%     92.37% # Number of insts commited each cycle
system.cpu.commit.committed_per_cycle::8      2177634      7.63%    100.00% # Number of insts commited each cycle
system.cpu.commit.committed_per_cycle::overflows            0      0.00%    100.00% # Number of insts commited each cycle
system.cpu.commit.committed_per_cycle::min_value            0                       # Number of insts commited each cycle
system.cpu.commit.committed_per_cycle::max_value            8                       # Number of insts commited each cycle
system.cpu.commit.committed_per_cycle::total     28539990                       # Number of insts commited each cycle
system.cpu.commit.fp_insts                    9411436                       # Number of committed floating point instructions.
system.cpu.commit.function_calls                   87                       # Number of function calls committed.
system.cpu.commit.int_insts                  16004073                       # Number of committed integer instructions.
system.cpu.commit.loads                       4718618                       # Number of loads committed
system.cpu.commit.membars                           0                       # Number of memory barriers committed
system.cpu.commit.op_class_0::No_OpClass           43      0.00%      0.00% # Class of committed instruction
system.cpu.commit.op_class_0::IntAlu         11308977     50.78%     50.78% # Class of committed instruction
system.cpu.commit.op_class_0::IntMult               5      0.00%     50.78% # Class of committed instruction
system.cpu.commit.op_class_0::IntDiv               21      0.00%     50.78% # Class of committed instruction
system.cpu.commit.op_class_0::FloatAdd        3096086     13.90%     64.68% # Class of committed instruction
system.cpu.commit.op_class_0::FloatCmp              0      0.00%     64.68% # Class of committed instruction
system.cpu.commit.op_class_0::FloatCvt              0      0.00%     64.68% # Class of committed instruction
system.cpu.commit.op_class_0::FloatMult             0      0.00%     64.68% # Class of committed instruction
system.cpu.commit.op_class_0::FloatMultAcc            0      0.00%     64.68% # Class of committed instruction
system.cpu.commit.op_class_0::FloatDiv              0      0.00%     64.68% # Class of committed instruction
system.cpu.commit.op_class_0::FloatMisc             0      0.00%     64.68% # Class of committed instruction
system.cpu.commit.op_class_0::FloatSqrt             0      0.00%     64.68% # Class of committed instruction
system.cpu.commit.op_class_0::SimdAdd               0      0.00%     64.68% # Class of committed instruction
system.cpu.commit.op_class_0::SimdAddAcc            0      0.00%     64.68% # Class of committed instruction
system.cpu.commit.op_class_0::SimdAlu              44      0.00%     64.68% # Class of committed instruction
system.cpu.commit.op_class_0::SimdCmp               0      0.00%     64.68% # Class of committed instruction
system.cpu.commit.op_class_0::SimdCvt              30      0.00%     64.68% # Class of committed instruction
system.cpu.commit.op_class_0::SimdMisc             44      0.00%     64.68% # Class of committed instruction
system.cpu.commit.op_class_0::SimdMult              0      0.00%     64.68% # Class of committed instruction
system.cpu.commit.op_class_0::SimdMultAcc            0      0.00%     64.68% # Class of committed instruction
system.cpu.commit.op_class_0::SimdShift             0      0.00%     64.68% # Class of committed instruction
system.cpu.commit.op_class_0::SimdShiftAcc            0      0.00%     64.68% # Class of committed instruction
system.cpu.commit.op_class_0::SimdDiv               0      0.00%     64.68% # Class of committed instruction
system.cpu.commit.op_class_0::SimdSqrt              0      0.00%     64.68% # Class of committed instruction
system.cpu.commit.op_class_0::SimdFloatAdd      1572618      7.06%     71.75% # Class of committed instruction
system.cpu.commit.op_class_0::SimdFloatAlu            0      0.00%     71.75% # Class of committed instruction
system.cpu.commit.op_class_0::SimdFloatCmp            0      0.00%     71.75% # Class of committed instruction
system.cpu.commit.op_class_0::SimdFloatCvt            0      0.00%     71.75% # Class of committed instruction
system.cpu.commit.op_class_0::SimdFloatDiv            0      0.00%     71.75% # Class of committed instruction
system.cpu.commit.op_class_0::SimdFloatMisc            0      0.00%     71.75% # Class of committed instruction
system.cpu.commit.op_class_0::SimdFloatMult      1548042      6.95%     78.70% # Class of committed instruction
system.cpu.commit.op_class_0::SimdFloatMultAcc            0      0.00%     78.70% # Class of committed instruction
system.cpu.commit.op_class_0::SimdFloatSqrt            0      0.00%     78.70% # Class of committed instruction
system.cpu.commit.op_class_0::SimdReduceAdd            0      0.00%     78.70% # Class of committed instruction
system.cpu.commit.op_class_0::SimdReduceAlu            0      0.00%     78.70% # Class of committed instruction
system.cpu.commit.op_class_0::SimdReduceCmp            0      0.00%     78.70% # Class of committed instruction
system.cpu.commit.op_class_0::SimdFloatReduceAdd            0      0.00%     78.70% # Class of committed instruction
system.cpu.commit.op_class_0::SimdFloatReduceCmp            0      0.00%     78.70% # Class of committed instruction
system.cpu.commit.op_class_0::SimdAes               0      0.00%     78.70% # Class of committed instruction
system.cpu.commit.op_class_0::SimdAesMix            0      0.00%     78.70% # Class of committed instruction
system.cpu.commit.op_class_0::SimdSha1Hash            0      0.00%     78.70% # Class of committed instruction
system.cpu.commit.op_class_0::SimdSha1Hash2            0      0.00%     78.70% # Class of committed instruction
system.cpu.commit.op_class_0::SimdSha256Hash            0      0.00%     78.70% # Class of committed instruction
system.cpu.commit.op_class_0::SimdSha256Hash2            0      0.00%     78.70% # Class of committed instruction
system.cpu.commit.op_class_0::SimdShaSigma2            0      0.00%     78.70% # Class of committed instruction
system.cpu.commit.op_class_0::SimdShaSigma3            0      0.00%     78.70% # Class of committed instruction
system.cpu.commit.op_class_0::SimdPredAlu            0      0.00%     78.70% # Class of committed instruction
system.cpu.commit.op_class_0::MemRead         1597932      7.18%     85.87% # Class of committed instruction
system.cpu.commit.op_class_0::MemWrite            862      0.00%     85.88% # Class of committed instruction
system.cpu.commit.op_class_0::FloatMemRead      3120686     14.01%     99.89% # Class of committed instruction
system.cpu.commit.op_class_0::FloatMemWrite        24728      0.11%    100.00% # Class of committed instruction
system.cpu.commit.op_class_0::IprAccess             0      0.00%    100.00% # Class of committed instruction
system.cpu.commit.op_class_0::InstPrefetch            0      0.00%    100.00% # Class of committed instruction
system.cpu.commit.op_class_0::total          22270118                       # Class of committed instruction
system.cpu.commit.refs                        4744208                       # Number of memory references committed
system.cpu.commit.swp_count                         0                       # Number of s/w prefetches committed
system.cpu.commit.vec_insts                         0                       # Number of committed Vector instructions.
system.cpu.committedInsts                    11182921                       # Number of Instructions Simulated
system.cpu.committedOps                      22270118                       # Number of Ops (including micro ops) Simulated
system.cpu.cpi                               2.559434                       # CPI: Cycles Per Instruction
system.cpu.cpi_total                         2.559434                       # CPI: Total CPI of All Threads
system.cpu.decode.BlockedCycles              23154595                       # Number of cycles decode is blocked
system.cpu.decode.DecodedInsts               22827698                       # Number of instructions handled by decode
system.cpu.decode.IdleCycles                  2268608                       # Number of cycles decode is idle
system.cpu.decode.RunCycles                   2101005                       # Number of cycles decode is running
system.cpu.decode.SquashCycles                  25386                       # Number of cycles decode is squashing
system.cpu.decode.UnblockCycles               1037892                       # Number of cycles decode is unblocking
system.cpu.dtb.rdAccesses                     4859778                       # TLB accesses on read requests
system.cpu.dtb.rdMisses                        124582                       # TLB misses on read requests
system.cpu.dtb.wrAccesses                       26204                       # TLB accesses on write requests
system.cpu.dtb.wrMisses                            19                       # TLB misses on write requests
system.cpu.fetch.Branches                     1655151                       # Number of branches that fetch encountered
system.cpu.fetch.CacheLines                   3281144                       # Number of cache lines fetched
system.cpu.fetch.Cycles                      25248478                       # Number of cycles fetch has run and was not squashing or blocked
system.cpu.fetch.IcacheSquashes                  4984                       # Number of outstanding Icache misses that were squashed
system.cpu.fetch.IcacheWaitRetryStallCycles          160                       # Number of stall cycles due to full MSHR
system.cpu.fetch.Insts                       11644555                       # Number of instructions fetch has processed
system.cpu.fetch.MiscStallCycles                   45                       # Number of cycles fetch has spent waiting on interrupts, or bad addresses, or out of MSHRs
system.cpu.fetch.PendingQuiesceStallCycles           14                       # Number of stall cycles due to pending quiesce instructions
system.cpu.fetch.PendingTrapStallCycles            14                       # Number of stall cycles due to pending traps
system.cpu.fetch.SquashCycles                   50772                       # Number of cycles fetch has spent squashing
system.cpu.fetch.branchRate                  0.057828                       # Number of branch fetches per cycle
system.cpu.fetch.icacheStallCycles            3313389                       # Number of cycles fetch is stalled on an Icache miss
system.cpu.fetch.predictedBranches            1626788                       # Number of branches that fetch has predicted taken
system.cpu.fetch.rate                        0.406840                       # Number of inst fetches per cycle
system.cpu.fetch.rateDist::samples           28587486                       # Number of instructions fetched each cycle (Total)
system.cpu.fetch.rateDist::mean              0.811229                       # Number of instructions fetched each cycle (Total)
system.cpu.fetch.rateDist::stdev             2.225341                       # Number of instructions fetched each cycle (Total)
system.cpu.fetch.rateDist::underflows               0      0.00%      0.00% # Number of instructions fetched each cycle (Total)
system.cpu.fetch.rateDist::0                 24998817     87.45%     87.45% # Number of instructions fetched each cycle (Total)
system.cpu.fetch.rateDist::1                      382      0.00%     87.45% # Number of instructions fetched each cycle (Total)
system.cpu.fetch.rateDist::2                   250517      0.88%     88.32% # Number of instructions fetched each cycle (Total)
system.cpu.fetch.rateDist::3                      330      0.00%     88.33% # Number of instructions fetched each cycle (Total)
system.cpu.fetch.rateDist::4                   241466      0.84%     89.17% # Number of instructions fetched each cycle (Total)
system.cpu.fetch.rateDist::5                      774      0.00%     89.17% # Number of instructions fetched each cycle (Total)
system.cpu.fetch.rateDist::6                  1521235      5.32%     94.49% # Number of instructions fetched each cycle (Total)
system.cpu.fetch.rateDist::7                      259      0.00%     94.50% # Number of instructions fetched each cycle (Total)
system.cpu.fetch.rateDist::8                  1573706      5.50%    100.00% # Number of instructions fetched each cycle (Total)
system.cpu.fetch.rateDist::overflows                0      0.00%    100.00% # Number of instructions fetched each cycle (Total)
system.cpu.fetch.rateDist::min_value                0                       # Number of instructions fetched each cycle (Total)
system.cpu.fetch.rateDist::max_value                8                       # Number of instructions fetched each cycle (Total)
system.cpu.fetch.rateDist::total             28587486                       # Number of instructions fetched each cycle (Total)
system.cpu.fp_regfile_reads                   9486707                       # number of floating regfile reads
system.cpu.fp_regfile_writes                  9417595                       # number of floating regfile writes
system.cpu.idleCycles                           34458                       # Total number of cycles that the CPU has spent unscheduled due to idling
system.cpu.iew.branchMispredicts                25583                       # Number of branch mispredicts detected at execute
system.cpu.iew.exec_branches                  1602373                       # Number of branches executed
system.cpu.iew.exec_nop                             0                       # number of nop insts executed
system.cpu.iew.exec_rate                     0.973102                       # Inst execution rate
system.cpu.iew.exec_refs                     10226775                       # number of memory reference insts executed
system.cpu.iew.exec_stores                      26203                       # Number of stores executed
system.cpu.iew.exec_swp                             0                       # number of swp insts executed
system.cpu.iew.iewBlockCycles                13604886                       # Number of cycles IEW is blocking
system.cpu.iew.iewDispLoadInsts               4792349                       # Number of dispatched load instructions
system.cpu.iew.iewDispNonSpecInsts                 35                       # Number of dispatched non-speculative instructions
system.cpu.iew.iewDispSquashedInsts             46896                       # Number of squashed instructions skipped by dispatch
system.cpu.iew.iewDispStoreInsts                26946                       # Number of dispatched store instructions
system.cpu.iew.iewDispatchedInsts            22589763                       # Number of instructions dispatched to IQ
system.cpu.iew.iewExecLoadInsts              10200572                       # Number of load instructions executed
system.cpu.iew.iewExecSquashedInsts             71880                       # Number of squashed instructions skipped in execute
system.cpu.iew.iewExecutedInsts              27852079                       # Number of executed instructions
system.cpu.iew.iewIQFullEvents                  97620                       # Number of times the IQ has become full, causing a stall
system.cpu.iew.iewIdleCycles                        0                       # Number of cycles IEW is idle
system.cpu.iew.iewLSQFullEvents               1493948                       # Number of times the LSQ has become full, causing a stall
system.cpu.iew.iewSquashCycles                  25386                       # Number of cycles IEW is squashing
system.cpu.iew.iewUnblockCycles               1681763                       # Number of cycles IEW is unblocking
system.cpu.iew.lsq.thread0.blockedLoads             0                       # Number of blocked loads due to partial load-store forwarding
system.cpu.iew.lsq.thread0.cacheBlocked        772727                       # Number of times an access to memory failed due to the cache being blocked
system.cpu.iew.lsq.thread0.forwLoads               62                       # Number of loads that had data forwarded from stores
system.cpu.iew.lsq.thread0.ignoredResponses            3                       # Number of memory responses ignored because the instruction is squashed
system.cpu.iew.lsq.thread0.invAddrLoads             0                       # Number of loads ignored due to an invalid address
system.cpu.iew.lsq.thread0.invAddrSwpfs             0                       # Number of software prefetches ignored due to an invalid address
system.cpu.iew.lsq.thread0.memOrderViolation            8                       # Number of memory ordering violations
system.cpu.iew.lsq.thread0.rescheduledLoads            2                       # Number of loads that were rescheduled
system.cpu.iew.lsq.thread0.squashedLoads        73731                       # Number of loads squashed
system.cpu.iew.lsq.thread0.squashedStores         1356                       # Number of stores squashed
system.cpu.iew.memOrderViolationEvents              8                       # Number of memory order violations
system.cpu.iew.predictedNotTakenIncorrect         1598                       # Number of branches that were predicted not taken incorrectly
system.cpu.iew.predictedTakenIncorrect          23985                       # Number of branches that were predicted taken incorrectly
system.cpu.iew.wb_consumers                  22580186                       # num instructions consuming a value
system.cpu.iew.wb_count                      22371759                       # cumulative count of insts written-back
system.cpu.iew.wb_fanout                     0.745081                       # average fanout of values written-back
system.cpu.iew.wb_producers                  16824070                       # num instructions producing a value
system.cpu.iew.wb_rate                       0.781630                       # insts written-back per cycle
system.cpu.iew.wb_sent                       22373788                       # cumulative count of insts sent to commit
system.cpu.int_regfile_reads                 31843121                       # number of integer regfile reads
system.cpu.int_regfile_writes                11327384                       # number of integer regfile writes
system.cpu.ipc                               0.390711                       # IPC: Instructions Per Cycle
system.cpu.ipc_total                         0.390711                       # IPC: Total IPC of All Threads
system.cpu.iq.FU_type_0::No_OpClass               294      0.00%      0.00% # Type of FU issued
system.cpu.iq.FU_type_0::IntAlu              11404925     40.84%     40.84% # Type of FU issued
system.cpu.iq.FU_type_0::IntMult                    5      0.00%     40.84% # Type of FU issued
system.cpu.iq.FU_type_0::IntDiv                    22      0.00%     40.84% # Type of FU issued
system.cpu.iq.FU_type_0::FloatAdd             3157306     11.31%     52.15% # Type of FU issued
system.cpu.iq.FU_type_0::FloatCmp                   0      0.00%     52.15% # Type of FU issued
system.cpu.iq.FU_type_0::FloatCvt                   0      0.00%     52.15% # Type of FU issued
system.cpu.iq.FU_type_0::FloatMult                  0      0.00%     52.15% # Type of FU issued
system.cpu.iq.FU_type_0::FloatMultAcc               0      0.00%     52.15% # Type of FU issued
system.cpu.iq.FU_type_0::FloatDiv                   0      0.00%     52.15% # Type of FU issued
system.cpu.iq.FU_type_0::FloatMisc                  0      0.00%     52.15% # Type of FU issued
system.cpu.iq.FU_type_0::FloatSqrt                  0      0.00%     52.15% # Type of FU issued
system.cpu.iq.FU_type_0::SimdAdd                    0      0.00%     52.15% # Type of FU issued
system.cpu.iq.FU_type_0::SimdAddAcc                 0      0.00%     52.15% # Type of FU issued
system.cpu.iq.FU_type_0::SimdAlu                   77      0.00%     52.15% # Type of FU issued
system.cpu.iq.FU_type_0::SimdCmp                    0      0.00%     52.15% # Type of FU issued
system.cpu.iq.FU_type_0::SimdCvt                   51      0.00%     52.15% # Type of FU issued
system.cpu.iq.FU_type_0::SimdMisc                  64      0.00%     52.15% # Type of FU issued
system.cpu.iq.FU_type_0::SimdMult                   0      0.00%     52.15% # Type of FU issued
system.cpu.iq.FU_type_0::SimdMultAcc                0      0.00%     52.15% # Type of FU issued
system.cpu.iq.FU_type_0::SimdShift                  0      0.00%     52.15% # Type of FU issued
system.cpu.iq.FU_type_0::SimdShiftAcc               0      0.00%     52.15% # Type of FU issued
system.cpu.iq.FU_type_0::SimdDiv                    0      0.00%     52.15% # Type of FU issued
system.cpu.iq.FU_type_0::SimdSqrt                   0      0.00%     52.15% # Type of FU issued
system.cpu.iq.FU_type_0::SimdFloatAdd         1572619      5.63%     57.78% # Type of FU issued
system.cpu.iq.FU_type_0::SimdFloatAlu               0      0.00%     57.78% # Type of FU issued
system.cpu.iq.FU_type_0::SimdFloatCmp               0      0.00%     57.78% # Type of FU issued
system.cpu.iq.FU_type_0::SimdFloatCvt               0      0.00%     57.78% # Type of FU issued
system.cpu.iq.FU_type_0::SimdFloatDiv               0      0.00%     57.78% # Type of FU issued
system.cpu.iq.FU_type_0::SimdFloatMisc              0      0.00%     57.78% # Type of FU issued
system.cpu.iq.FU_type_0::SimdFloatMult        1548044      5.54%     63.33% # Type of FU issued
system.cpu.iq.FU_type_0::SimdFloatMultAcc            0      0.00%     63.33% # Type of FU issued
system.cpu.iq.FU_type_0::SimdFloatSqrt              0      0.00%     63.33% # Type of FU issued
system.cpu.iq.FU_type_0::SimdReduceAdd              0      0.00%     63.33% # Type of FU issued
system.cpu.iq.FU_type_0::SimdReduceAlu              0      0.00%     63.33% # Type of FU issued
system.cpu.iq.FU_type_0::SimdReduceCmp              0      0.00%     63.33% # Type of FU issued
system.cpu.iq.FU_type_0::SimdFloatReduceAdd            0      0.00%     63.33% # Type of FU issued
system.cpu.iq.FU_type_0::SimdFloatReduceCmp            0      0.00%     63.33% # Type of FU issued
system.cpu.iq.FU_type_0::SimdAes                    0      0.00%     63.33% # Type of FU issued
system.cpu.iq.FU_type_0::SimdAesMix                 0      0.00%     63.33% # Type of FU issued
system.cpu.iq.FU_type_0::SimdSha1Hash               0      0.00%     63.33% # Type of FU issued
system.cpu.iq.FU_type_0::SimdSha1Hash2              0      0.00%     63.33% # Type of FU issued
system.cpu.iq.FU_type_0::SimdSha256Hash             0      0.00%     63.33% # Type of FU issued
system.cpu.iq.FU_type_0::SimdSha256Hash2            0      0.00%     63.33% # Type of FU issued
system.cpu.iq.FU_type_0::SimdShaSigma2              0      0.00%     63.33% # Type of FU issued
system.cpu.iq.FU_type_0::SimdShaSigma3              0      0.00%     63.33% # Type of FU issued
system.cpu.iq.FU_type_0::SimdPredAlu                0      0.00%     63.33% # Type of FU issued
system.cpu.iq.FU_type_0::MemRead              3512828     12.58%     75.91% # Type of FU issued
system.cpu.iq.FU_type_0::MemWrite                1600      0.01%     75.91% # Type of FU issued
system.cpu.iq.FU_type_0::FloatMemRead         6701394     24.00%     99.91% # Type of FU issued
system.cpu.iq.FU_type_0::FloatMemWrite          24730      0.09%    100.00% # Type of FU issued
system.cpu.iq.FU_type_0::IprAccess                  0      0.00%    100.00% # Type of FU issued
system.cpu.iq.FU_type_0::InstPrefetch               0      0.00%    100.00% # Type of FU issued
system.cpu.iq.FU_type_0::total               27923959                       # Type of FU issued
system.cpu.iq.fp_alu_accesses                14147854                       # Number of floating point alu accesses
system.cpu.iq.fp_inst_queue_reads            27213891                       # Number of floating instruction queue reads
system.cpu.iq.fp_inst_queue_wakeup_accesses      9441364                       # Number of floating instruction queue wakeup accesses
system.cpu.iq.fp_inst_queue_writes            9664940                       # Number of floating instruction queue writes
system.cpu.iq.fu_busy_cnt                     2023590                       # FU busy when requested
system.cpu.iq.fu_busy_rate                   0.072468                       # FU busy rate (busy events/executed inst)
system.cpu.iq.fu_full::No_OpClass                   0      0.00%      0.00% # attempts to use FU when none available
system.cpu.iq.fu_full::IntAlu                   95662      4.73%      4.73% # attempts to use FU when none available
system.cpu.iq.fu_full::IntMult                      0      0.00%      4.73% # attempts to use FU when none available
system.cpu.iq.fu_full::IntDiv                       0      0.00%      4.73% # attempts to use FU when none available
system.cpu.iq.fu_full::FloatAdd                     0      0.00%      4.73% # attempts to use FU when none available
system.cpu.iq.fu_full::FloatCmp                     0      0.00%      4.73% # attempts to use FU when none available
system.cpu.iq.fu_full::FloatCvt                     0      0.00%      4.73% # attempts to use FU when none available
system.cpu.iq.fu_full::FloatMult                    0      0.00%      4.73% # attempts to use FU when none available
system.cpu.iq.fu_full::FloatMultAcc                 0      0.00%      4.73% # attempts to use FU when none available
system.cpu.iq.fu_full::FloatDiv                     0      0.00%      4.73% # attempts to use FU when none available
system.cpu.iq.fu_full::FloatMisc                    0      0.00%      4.73% # attempts to use FU when none available
system.cpu.iq.fu_full::FloatSqrt                    0      0.00%      4.73% # attempts to use FU when none available
system.cpu.iq.fu_full::SimdAdd                      0      0.00%      4.73% # attempts to use FU when none available
system.cpu.iq.fu_full::SimdAddAcc                   0      0.00%      4.73% # attempts to use FU when none available
system.cpu.iq.fu_full::SimdAlu                      7      0.00%      4.73% # attempts to use FU when none available
system.cpu.iq.fu_full::SimdCmp                      0      0.00%      4.73% # attempts to use FU when none available
system.cpu.iq.fu_full::SimdCvt                      2      0.00%      4.73% # attempts to use FU when none available
system.cpu.iq.fu_full::SimdMisc                     0      0.00%      4.73% # attempts to use FU when none available
system.cpu.iq.fu_full::SimdMult                     0      0.00%      4.73% # attempts to use FU when none available
system.cpu.iq.fu_full::SimdMultAcc                  0      0.00%      4.73% # attempts to use FU when none available
system.cpu.iq.fu_full::SimdShift                    0      0.00%      4.73% # attempts to use FU when none available
system.cpu.iq.fu_full::SimdShiftAcc                 0      0.00%      4.73% # attempts to use FU when none available
system.cpu.iq.fu_full::SimdDiv                      0      0.00%      4.73% # attempts to use FU when none available
system.cpu.iq.fu_full::SimdSqrt                     0      0.00%      4.73% # attempts to use FU when none available
system.cpu.iq.fu_full::SimdFloatAdd                 0      0.00%      4.73% # attempts to use FU when none available
system.cpu.iq.fu_full::SimdFloatAlu                 0      0.00%      4.73% # attempts to use FU when none available
system.cpu.iq.fu_full::SimdFloatCmp                 0      0.00%      4.73% # attempts to use FU when none available
system.cpu.iq.fu_full::SimdFloatCvt                 0      0.00%      4.73% # attempts to use FU when none available
system.cpu.iq.fu_full::SimdFloatDiv                 0      0.00%      4.73% # attempts to use FU when none available
system.cpu.iq.fu_full::SimdFloatMisc                0      0.00%      4.73% # attempts to use FU when none available
system.cpu.iq.fu_full::SimdFloatMult            14441      0.71%      5.44% # attempts to use FU when none available
system.cpu.iq.fu_full::SimdFloatMultAcc             0      0.00%      5.44% # attempts to use FU when none available
system.cpu.iq.fu_full::SimdFloatSqrt                0      0.00%      5.44% # attempts to use FU when none available
system.cpu.iq.fu_full::SimdReduceAdd                0      0.00%      5.44% # attempts to use FU when none available
system.cpu.iq.fu_full::SimdReduceAlu                0      0.00%      5.44% # attempts to use FU when none available
system.cpu.iq.fu_full::SimdReduceCmp                0      0.00%      5.44% # attempts to use FU when none available
system.cpu.iq.fu_full::SimdFloatReduceAdd            0      0.00%      5.44% # attempts to use FU when none available
system.cpu.iq.fu_full::SimdFloatReduceCmp            0      0.00%      5.44% # attempts to use FU when none available
system.cpu.iq.fu_full::SimdAes                      0      0.00%      5.44% # attempts to use FU when none available
system.cpu.iq.fu_full::SimdAesMix                   0      0.00%      5.44% # attempts to use FU when none available
system.cpu.iq.fu_full::SimdSha1Hash                 0      0.00%      5.44% # attempts to use FU when none available
system.cpu.iq.fu_full::SimdSha1Hash2                0      0.00%      5.44% # attempts to use FU when none available
system.cpu.iq.fu_full::SimdSha256Hash               0      0.00%      5.44% # attempts to use FU when none available
system.cpu.iq.fu_full::SimdSha256Hash2              0      0.00%      5.44% # attempts to use FU when none available
system.cpu.iq.fu_full::SimdShaSigma2                0      0.00%      5.44% # attempts to use FU when none available
system.cpu.iq.fu_full::SimdShaSigma3                0      0.00%      5.44% # attempts to use FU when none available
system.cpu.iq.fu_full::SimdPredAlu                  0      0.00%      5.44% # attempts to use FU when none available
system.cpu.iq.fu_full::MemRead                 834181     41.22%     46.66% # attempts to use FU when none available
system.cpu.iq.fu_full::MemWrite                     0      0.00%     46.66% # attempts to use FU when none available
system.cpu.iq.fu_full::FloatMemRead           1079293     53.34%    100.00% # attempts to use FU when none available
system.cpu.iq.fu_full::FloatMemWrite                4      0.00%    100.00% # attempts to use FU when none available
system.cpu.iq.fu_full::IprAccess                    0      0.00%    100.00% # attempts to use FU when none available
system.cpu.iq.fu_full::InstPrefetch                 0      0.00%    100.00% # attempts to use FU when none available
system.cpu.iq.int_alu_accesses               15799401                       # Number of integer alu accesses
system.cpu.iq.int_inst_queue_reads           59270333                       # Number of integer instruction queue reads
system.cpu.iq.int_inst_queue_wakeup_accesses     12930395                       # Number of integer instruction queue wakeup accesses
system.cpu.iq.int_inst_queue_writes          13244475                       # Number of integer instruction queue writes
system.cpu.iq.iqInstsAdded                   22589687                       # Number of instructions added to the IQ (excludes non-spec)
system.cpu.iq.iqInstsIssued                  27923959                       # Number of instructions issued
system.cpu.iq.iqNonSpecInstsAdded                  76                       # Number of non-speculative instructions added to the IQ
system.cpu.iq.iqSquashedInstsExamined          319644                       # Number of squashed instructions iterated over during squash; mainly for profiling
system.cpu.iq.iqSquashedInstsIssued             25230                       # Number of squashed instructions issued
system.cpu.iq.iqSquashedNonSpecRemoved             68                       # Number of squashed non-spec instructions that were removed
system.cpu.iq.iqSquashedOperandsExamined       434342                       # Number of squashed operands that are examined and possibly removed from graph
system.cpu.iq.issued_per_cycle::samples      28587486                       # Number of insts issued each cycle
system.cpu.iq.issued_per_cycle::mean         0.976790                       # Number of insts issued each cycle
system.cpu.iq.issued_per_cycle::stdev        1.825565                       # Number of insts issued each cycle
system.cpu.iq.issued_per_cycle::underflows            0      0.00%      0.00% # Number of insts issued each cycle
system.cpu.iq.issued_per_cycle::0            19503016     68.22%     68.22% # Number of insts issued each cycle
system.cpu.iq.issued_per_cycle::1             2977348     10.41%     78.64% # Number of insts issued each cycle
system.cpu.iq.issued_per_cycle::2             1554150      5.44%     84.07% # Number of insts issued each cycle
system.cpu.iq.issued_per_cycle::3              947974      3.32%     87.39% # Number of insts issued each cycle
system.cpu.iq.issued_per_cycle::4             1114495      3.90%     91.29% # Number of insts issued each cycle
system.cpu.iq.issued_per_cycle::5             1136055      3.97%     95.26% # Number of insts issued each cycle
system.cpu.iq.issued_per_cycle::6              798548      2.79%     98.06% # Number of insts issued each cycle
system.cpu.iq.issued_per_cycle::7              382354      1.34%     99.39% # Number of insts issued each cycle
system.cpu.iq.issued_per_cycle::8              173546      0.61%    100.00% # Number of insts issued each cycle
system.cpu.iq.issued_per_cycle::overflows            0      0.00%    100.00% # Number of insts issued each cycle
system.cpu.iq.issued_per_cycle::min_value            0                       # Number of insts issued each cycle
system.cpu.iq.issued_per_cycle::max_value            8                       # Number of insts issued each cycle
system.cpu.iq.issued_per_cycle::total        28587486                       # Number of insts issued each cycle
system.cpu.iq.rate                           0.975614                       # Inst issue rate
system.cpu.iq.vec_alu_accesses                      0                       # Number of vector alu accesses
system.cpu.iq.vec_inst_queue_reads                  0                       # Number of vector instruction queue reads
system.cpu.iq.vec_inst_queue_wakeup_accesses            0                       # Number of vector instruction queue wakeup accesses
system.cpu.iq.vec_inst_queue_writes                 0                       # Number of vector instruction queue writes
system.cpu.itb.rdAccesses                           0                       # TLB accesses on read requests
system.cpu.itb.rdMisses                             0                       # TLB misses on read requests
system.cpu.itb.wrAccesses                     3281149                       # TLB accesses on write requests
system.cpu.itb.wrMisses                            34                       # TLB misses on write requests
system.cpu.memDep0.conflictingLoads               882                       # Number of conflicting loads.
system.cpu.memDep0.conflictingStores              871                       # Number of conflicting stores.
system.cpu.memDep0.insertedLoads              4792349                       # Number of loads inserted to the mem dependence unit.
system.cpu.memDep0.insertedStores               26946                       # Number of stores inserted to the mem dependence unit.
system.cpu.misc_regfile_reads                13437946                       # number of misc regfile reads
system.cpu.misc_regfile_writes                      1                       # number of misc regfile writes
system.cpu.numCycles                         28621944                       # number of cpu cycles simulated
system.cpu.numWorkItemsCompleted                    0                       # number of work items this cpu completed
system.cpu.numWorkItemsStarted                      0                       # number of work items this cpu started
system.cpu.rename.BlockCycles                16217883                       # Number of cycles rename is blocking
system.cpu.rename.CommittedMaps              27132083                       # Number of HB maps that are committed
system.cpu.rename.IQFullEvents                3148598                       # Number of times rename has blocked due to IQ full
system.cpu.rename.IdleCycles                  2560535                       # Number of cycles rename is idle
system.cpu.rename.LQFullEvents                5637238                       # Number of times rename has blocked due to LQ full
system.cpu.rename.ROBFullEvents                 44433                       # Number of times rename has blocked due to ROB full
system.cpu.rename.RenameLookups              47126279                       # Number of register rename lookups that rename has made
system.cpu.rename.RenamedInsts               22722763                       # Number of instructions processed by rename
system.cpu.rename.RenamedOperands            27698610                       # Number of destination operands rename has renamed
system.cpu.rename.RunCycles                   2762046                       # Number of cycles rename is running
system.cpu.rename.SQFullEvents                   5494                       # Number of times rename has blocked due to SQ full
system.cpu.rename.SquashCycles                  25386                       # Number of cycles rename is squashing
system.cpu.rename.UnblockCycles               7020107                       # Number of cycles rename is unblocking
system.cpu.rename.UndoneMaps                   566527                       # Number of HB maps that are undone due to squashing
system.cpu.rename.fp_rename_lookups           9632672                       # Number of floating rename lookups
system.cpu.rename.int_rename_lookups         21261771                       # Number of integer rename lookups
system.cpu.rename.serializeStallCycles           1529                       # count of cycles rename stalled for serializing inst
system.cpu.rename.serializingInsts                 22                       # count of serializing insts renamed
system.cpu.rename.skidInsts                   5891165                       # count of insts added to the skid buffer
system.cpu.rename.tempSerializingInsts             15                       # count of temporary serializing insts renamed
system.cpu.rob.rob_reads                     48952765                       # The number of ROB reads
system.cpu.rob.rob_writes                    45228351                       # The number of ROB writes
system.cpu.timesIdled                             206                       # Number of times that the entire CPU went into an idle state and unscheduled itself
system.cpu.workload.numSyscalls                     7                       # Number of system calls
system.l2bus.snoop_filter.hit_multi_requests            1                       # Number of requests hitting in the snoop filter with multiple (>1) holders of the requested data.
system.l2bus.snoop_filter.hit_multi_snoops            0                       # Number of snoops hitting in the snoop filter with multiple (>1) holders of the requested data.
system.l2bus.snoop_filter.hit_single_requests      1134179                       # Number of requests hitting in the snoop filter with a single holder of the requested data.
system.l2bus.snoop_filter.hit_single_snoops          293                       # Number of snoops hitting in the snoop filter with a single holder of the requested data.
system.l2bus.snoop_filter.tot_requests        2270722                       # Total number of requests made to the snoop filter.
system.l2bus.snoop_filter.tot_snoops              293                       # Total number of snoops made to the snoop filter.
system.membus.snoop_filter.hit_multi_requests            0                       # Number of requests hitting in the snoop filter with multiple (>1) holders of the requested data.
system.membus.snoop_filter.hit_multi_snoops            0                       # Number of snoops hitting in the snoop filter with multiple (>1) holders of the requested data.
system.membus.snoop_filter.hit_single_requests       184499                       # Number of requests hitting in the snoop filter with a single holder of the requested data.
system.membus.snoop_filter.hit_single_snoops            0                       # Number of snoops hitting in the snoop filter with a single holder of the requested data.
system.membus.snoop_filter.tot_requests        385675                       # Total number of requests made to the snoop filter.
system.membus.snoop_filter.tot_snoops               0                       # Total number of snoops made to the snoop filter.
system.membus.pwrStateResidencyTicks::UNDEFINED   7155485750                       # Cumulative time (in ticks) in various power states
system.membus.trans_dist::ReadResp             201085                       # Transaction distribution
system.membus.trans_dist::WritebackDirty         1553                       # Transaction distribution
system.membus.trans_dist::CleanEvict           182946                       # Transaction distribution
system.membus.trans_dist::ReadExReq                91                       # Transaction distribution
system.membus.trans_dist::ReadExResp               91                       # Transaction distribution
system.membus.trans_dist::ReadSharedReq        201085                       # Transaction distribution
system.membus.pkt_count_system.l2cache.mem_side::system.mem_ctrl.port       586851                       # Packet count per connected master and slave (bytes)
system.membus.pkt_count_system.l2cache.mem_side::total       586851                       # Packet count per connected master and slave (bytes)
system.membus.pkt_count::total                 586851                       # Packet count per connected master and slave (bytes)
system.membus.pkt_size_system.l2cache.mem_side::system.mem_ctrl.port     12974656                       # Cumulative packet size per connected master and slave (bytes)
system.membus.pkt_size_system.l2cache.mem_side::total     12974656                       # Cumulative packet size per connected master and slave (bytes)
system.membus.pkt_size::total                12974656                       # Cumulative packet size per connected master and slave (bytes)
system.membus.snoops                                0                       # Total snoops (count)
system.membus.snoopTraffic                          0                       # Total snoop traffic (bytes)
system.membus.snoop_fanout::samples            201176                       # Request fanout histogram
system.membus.snoop_fanout::mean                    0                       # Request fanout histogram
system.membus.snoop_fanout::stdev                   0                       # Request fanout histogram
system.membus.snoop_fanout::underflows              0      0.00%      0.00% # Request fanout histogram
system.membus.snoop_fanout::0                  201176    100.00%    100.00% # Request fanout histogram
system.membus.snoop_fanout::1                       0      0.00%    100.00% # Request fanout histogram
system.membus.snoop_fanout::overflows               0      0.00%    100.00% # Request fanout histogram
system.membus.snoop_fanout::min_value               0                       # Request fanout histogram
system.membus.snoop_fanout::max_value               0                       # Request fanout histogram
system.membus.snoop_fanout::total              201176                       # Request fanout histogram
system.membus.reqLayer2.occupancy            97971750                       # Layer occupancy (ticks)
system.membus.reqLayer2.utilization               1.4                       # Layer utilization (%)
system.membus.respLayer0.occupancy          251470000                       # Layer occupancy (ticks)
system.membus.respLayer0.utilization              3.5                       # Layer utilization (%)
system.l2bus.pwrStateResidencyTicks::UNDEFINED   7155485750                       # Cumulative time (in ticks) in various power states
system.l2bus.trans_dist::ReadResp             1136451                       # Transaction distribution
system.l2bus.trans_dist::WritebackDirty          3265                       # Transaction distribution
system.l2bus.trans_dist::CleanEvict           1315706                       # Transaction distribution
system.l2bus.trans_dist::ReadExReq                 91                       # Transaction distribution
system.l2bus.trans_dist::ReadExResp                91                       # Transaction distribution
system.l2bus.trans_dist::ReadSharedReq        1136452                       # Transaction distribution
system.l2bus.pkt_count_system.cpu.icache.mem_side::system.l2cache.cpu_side          631                       # Packet count per connected master and slave (bytes)
system.l2bus.pkt_count_system.cpu.dcache.mem_side::system.l2cache.cpu_side      3406633                       # Packet count per connected master and slave (bytes)
system.l2bus.pkt_count::total                 3407264                       # Packet count per connected master and slave (bytes)
system.l2bus.pkt_size_system.cpu.icache.mem_side::system.l2cache.cpu_side        20160                       # Cumulative packet size per connected master and slave (bytes)
system.l2bus.pkt_size_system.cpu.dcache.mem_side::system.l2cache.cpu_side     72828096                       # Cumulative packet size per connected master and slave (bytes)
system.l2bus.pkt_size::total                 72848256                       # Cumulative packet size per connected master and slave (bytes)
system.l2bus.snoops                            184792                       # Total snoops (count)
system.l2bus.snoopTraffic                       99392                       # Total snoop traffic (bytes)
system.l2bus.snoop_fanout::samples            1321335                       # Request fanout histogram
system.l2bus.snoop_fanout::mean              0.000223                       # Request fanout histogram
system.l2bus.snoop_fanout::stdev             0.014915                       # Request fanout histogram
system.l2bus.snoop_fanout::underflows               0      0.00%      0.00% # Request fanout histogram
system.l2bus.snoop_fanout::0                  1321041     99.98%     99.98% # Request fanout histogram
system.l2bus.snoop_fanout::1                      294      0.02%    100.00% # Request fanout histogram
system.l2bus.snoop_fanout::2                        0      0.00%    100.00% # Request fanout histogram
system.l2bus.snoop_fanout::overflows                0      0.00%    100.00% # Request fanout histogram
system.l2bus.snoop_fanout::min_value                0                       # Request fanout histogram
system.l2bus.snoop_fanout::max_value                1                       # Request fanout histogram
system.l2bus.snoop_fanout::total              1321335                       # Request fanout histogram
system.l2bus.respLayer1.occupancy           852170250                       # Layer occupancy (ticks)
system.l2bus.respLayer1.utilization              11.9                       # Layer utilization (%)
system.l2bus.reqLayer0.occupancy            568536500                       # Layer occupancy (ticks)
system.l2bus.reqLayer0.utilization                7.9                       # Layer utilization (%)
system.l2bus.respLayer0.occupancy              236250                       # Layer occupancy (ticks)
system.l2bus.respLayer0.utilization               0.0                       # Layer utilization (%)
system.clk_domain.clock                           250                       # Clock period in ticks
system.clk_domain.voltage_domain.voltage            1                       # Voltage in Volts
system.cpu.pwrStateResidencyTicks::ON      7155485750                       # Cumulative time (in ticks) in various power states
system.cpu.icache.pwrStateResidencyTicks::UNDEFINED   7155485750                       # Cumulative time (in ticks) in various power states
system.cpu.icache.demand_hits::.cpu.inst      3280691                       # number of demand (read+write) hits
system.cpu.icache.demand_hits::total          3280691                       # number of demand (read+write) hits
system.cpu.icache.overall_hits::.cpu.inst      3280691                       # number of overall hits
system.cpu.icache.overall_hits::total         3280691                       # number of overall hits
system.cpu.icache.demand_misses::.cpu.inst          452                       # number of demand (read+write) misses
system.cpu.icache.demand_misses::total            452                       # number of demand (read+write) misses
system.cpu.icache.overall_misses::.cpu.inst          452                       # number of overall misses
system.cpu.icache.overall_misses::total           452                       # number of overall misses
system.cpu.icache.demand_miss_latency::.cpu.inst     24936249                       # number of demand (read+write) miss cycles
system.cpu.icache.demand_miss_latency::total     24936249                       # number of demand (read+write) miss cycles
system.cpu.icache.overall_miss_latency::.cpu.inst     24936249                       # number of overall miss cycles
system.cpu.icache.overall_miss_latency::total     24936249                       # number of overall miss cycles
system.cpu.icache.demand_accesses::.cpu.inst      3281143                       # number of demand (read+write) accesses
system.cpu.icache.demand_accesses::total      3281143                       # number of demand (read+write) accesses
system.cpu.icache.overall_accesses::.cpu.inst      3281143                       # number of overall (read+write) accesses
system.cpu.icache.overall_accesses::total      3281143                       # number of overall (read+write) accesses
system.cpu.icache.demand_miss_rate::.cpu.inst     0.000138                       # miss rate for demand accesses
system.cpu.icache.demand_miss_rate::total     0.000138                       # miss rate for demand accesses
system.cpu.icache.overall_miss_rate::.cpu.inst     0.000138                       # miss rate for overall accesses
system.cpu.icache.overall_miss_rate::total     0.000138                       # miss rate for overall accesses
system.cpu.icache.demand_avg_miss_latency::.cpu.inst 55168.692478                       # average overall miss latency
system.cpu.icache.demand_avg_miss_latency::total 55168.692478                       # average overall miss latency
system.cpu.icache.overall_avg_miss_latency::.cpu.inst 55168.692478                       # average overall miss latency
system.cpu.icache.overall_avg_miss_latency::total 55168.692478                       # average overall miss latency
system.cpu.icache.blocked_cycles::no_mshrs          617                       # number of cycles access was blocked
system.cpu.icache.blocked_cycles::no_targets            0                       # number of cycles access was blocked
system.cpu.icache.blocked::no_mshrs                 5                       # number of cycles access was blocked
system.cpu.icache.blocked::no_targets               0                       # number of cycles access was blocked
system.cpu.icache.avg_blocked_cycles::no_mshrs   123.400000                       # average number of cycles each access was blocked
system.cpu.icache.avg_blocked_cycles::no_targets          nan                       # average number of cycles each access was blocked
system.cpu.icache.demand_mshr_hits::.cpu.inst          136                       # number of demand (read+write) MSHR hits
system.cpu.icache.demand_mshr_hits::total          136                       # number of demand (read+write) MSHR hits
system.cpu.icache.overall_mshr_hits::.cpu.inst          136                       # number of overall MSHR hits
system.cpu.icache.overall_mshr_hits::total          136                       # number of overall MSHR hits
system.cpu.icache.demand_mshr_misses::.cpu.inst          316                       # number of demand (read+write) MSHR misses
system.cpu.icache.demand_mshr_misses::total          316                       # number of demand (read+write) MSHR misses
system.cpu.icache.overall_mshr_misses::.cpu.inst          316                       # number of overall MSHR misses
system.cpu.icache.overall_mshr_misses::total          316                       # number of overall MSHR misses
system.cpu.icache.demand_mshr_miss_latency::.cpu.inst     18691999                       # number of demand (read+write) MSHR miss cycles
system.cpu.icache.demand_mshr_miss_latency::total     18691999                       # number of demand (read+write) MSHR miss cycles
system.cpu.icache.overall_mshr_miss_latency::.cpu.inst     18691999                       # number of overall MSHR miss cycles
system.cpu.icache.overall_mshr_miss_latency::total     18691999                       # number of overall MSHR miss cycles
system.cpu.icache.demand_mshr_miss_rate::.cpu.inst     0.000096                       # mshr miss rate for demand accesses
system.cpu.icache.demand_mshr_miss_rate::total     0.000096                       # mshr miss rate for demand accesses
system.cpu.icache.overall_mshr_miss_rate::.cpu.inst     0.000096                       # mshr miss rate for overall accesses
system.cpu.icache.overall_mshr_miss_rate::total     0.000096                       # mshr miss rate for overall accesses
system.cpu.icache.demand_avg_mshr_miss_latency::.cpu.inst 59151.895570                       # average overall mshr miss latency
system.cpu.icache.demand_avg_mshr_miss_latency::total 59151.895570                       # average overall mshr miss latency
system.cpu.icache.overall_avg_mshr_miss_latency::.cpu.inst 59151.895570                       # average overall mshr miss latency
system.cpu.icache.overall_avg_mshr_miss_latency::total 59151.895570                       # average overall mshr miss latency
system.cpu.icache.replacements                      0                       # number of replacements
system.cpu.icache.ReadReq_hits::.cpu.inst      3280691                       # number of ReadReq hits
system.cpu.icache.ReadReq_hits::total         3280691                       # number of ReadReq hits
system.cpu.icache.ReadReq_misses::.cpu.inst          452                       # number of ReadReq misses
system.cpu.icache.ReadReq_misses::total           452                       # number of ReadReq misses
system.cpu.icache.ReadReq_miss_latency::.cpu.inst     24936249                       # number of ReadReq miss cycles
system.cpu.icache.ReadReq_miss_latency::total     24936249                       # number of ReadReq miss cycles
system.cpu.icache.ReadReq_accesses::.cpu.inst      3281143                       # number of ReadReq accesses(hits+misses)
system.cpu.icache.ReadReq_accesses::total      3281143                       # number of ReadReq accesses(hits+misses)
system.cpu.icache.ReadReq_miss_rate::.cpu.inst     0.000138                       # miss rate for ReadReq accesses
system.cpu.icache.ReadReq_miss_rate::total     0.000138                       # miss rate for ReadReq accesses
system.cpu.icache.ReadReq_avg_miss_latency::.cpu.inst 55168.692478                       # average ReadReq miss latency
system.cpu.icache.ReadReq_avg_miss_latency::total 55168.692478                       # average ReadReq miss latency
system.cpu.icache.ReadReq_mshr_hits::.cpu.inst          136                       # number of ReadReq MSHR hits
system.cpu.icache.ReadReq_mshr_hits::total          136                       # number of ReadReq MSHR hits
system.cpu.icache.ReadReq_mshr_misses::.cpu.inst          316                       # number of ReadReq MSHR misses
system.cpu.icache.ReadReq_mshr_misses::total          316                       # number of ReadReq MSHR misses
system.cpu.icache.ReadReq_mshr_miss_latency::.cpu.inst     18691999                       # number of ReadReq MSHR miss cycles
system.cpu.icache.ReadReq_mshr_miss_latency::total     18691999                       # number of ReadReq MSHR miss cycles
system.cpu.icache.ReadReq_mshr_miss_rate::.cpu.inst     0.000096                       # mshr miss rate for ReadReq accesses
system.cpu.icache.ReadReq_mshr_miss_rate::total     0.000096                       # mshr miss rate for ReadReq accesses
system.cpu.icache.ReadReq_avg_mshr_miss_latency::.cpu.inst 59151.895570                       # average ReadReq mshr miss latency
system.cpu.icache.ReadReq_avg_mshr_miss_latency::total 59151.895570                       # average ReadReq mshr miss latency
system.cpu.icache.tags.pwrStateResidencyTicks::UNDEFINED   7155485750                       # Cumulative time (in ticks) in various power states
system.cpu.icache.tags.tagsinuse           292.667981                       # Cycle average of tags in use
system.cpu.icache.tags.total_refs             3281006                       # Total number of references to valid blocks.
system.cpu.icache.tags.sampled_refs               315                       # Sample count of references to valid blocks.
system.cpu.icache.tags.avg_refs          10415.892063                       # Average number of references to valid blocks.
system.cpu.icache.tags.warmup_cycle             74000                       # Cycle when the warmup percentage was hit.
system.cpu.icache.tags.occ_blocks::.cpu.inst   292.667981                       # Average occupied blocks per requestor
system.cpu.icache.tags.occ_percent::.cpu.inst     0.142904                       # Average percentage of cache occupancy
system.cpu.icache.tags.occ_percent::total     0.142904                       # Average percentage of cache occupancy
system.cpu.icache.tags.occ_task_id_blocks::1024          315                       # Occupied blocks per task id
system.cpu.icache.tags.age_task_id_blocks_1024::0           22                       # Occupied blocks per task id
system.cpu.icache.tags.age_task_id_blocks_1024::3          293                       # Occupied blocks per task id
system.cpu.icache.tags.occ_task_id_percent::1024     0.153809                       # Percentage of cache occupancy per task id
system.cpu.icache.tags.tag_accesses           6562601                       # Number of tag accesses
system.cpu.icache.tags.data_accesses          6562601                       # Number of data accesses
system.cpu.dtb.walker.pwrStateResidencyTicks::UNDEFINED   7155485750                       # Cumulative time (in ticks) in various power states
system.cpu.interrupts.clk_domain.clock           4000                       # Clock period in ticks
system.cpu.itb.walker.pwrStateResidencyTicks::UNDEFINED   7155485750                       # Cumulative time (in ticks) in various power states
system.cpu.dcache.pwrStateResidencyTicks::UNDEFINED   7155485750                       # Cumulative time (in ticks) in various power states
system.cpu.dcache.demand_hits::.cpu.data      1813800                       # number of demand (read+write) hits
system.cpu.dcache.demand_hits::total          1813800                       # number of demand (read+write) hits
system.cpu.dcache.overall_hits::.cpu.data      1813800                       # number of overall hits
system.cpu.dcache.overall_hits::total         1813800                       # number of overall hits
system.cpu.dcache.demand_misses::.cpu.data      3048178                       # number of demand (read+write) misses
system.cpu.dcache.demand_misses::total        3048178                       # number of demand (read+write) misses
system.cpu.dcache.overall_misses::.cpu.data      3048178                       # number of overall misses
system.cpu.dcache.overall_misses::total       3048178                       # number of overall misses
system.cpu.dcache.demand_miss_latency::.cpu.data 116181648500                       # number of demand (read+write) miss cycles
system.cpu.dcache.demand_miss_latency::total 116181648500                       # number of demand (read+write) miss cycles
system.cpu.dcache.overall_miss_latency::.cpu.data 116181648500                       # number of overall miss cycles
system.cpu.dcache.overall_miss_latency::total 116181648500                       # number of overall miss cycles
system.cpu.dcache.demand_accesses::.cpu.data      4861978                       # number of demand (read+write) accesses
system.cpu.dcache.demand_accesses::total      4861978                       # number of demand (read+write) accesses
system.cpu.dcache.overall_accesses::.cpu.data      4861978                       # number of overall (read+write) accesses
system.cpu.dcache.overall_accesses::total      4861978                       # number of overall (read+write) accesses
system.cpu.dcache.demand_miss_rate::.cpu.data     0.626942                       # miss rate for demand accesses
system.cpu.dcache.demand_miss_rate::total     0.626942                       # miss rate for demand accesses
system.cpu.dcache.overall_miss_rate::.cpu.data     0.626942                       # miss rate for overall accesses
system.cpu.dcache.overall_miss_rate::total     0.626942                       # miss rate for overall accesses
system.cpu.dcache.demand_avg_miss_latency::.cpu.data 38115.112864                       # average overall miss latency
system.cpu.dcache.demand_avg_miss_latency::total 38115.112864                       # average overall miss latency
system.cpu.dcache.overall_avg_miss_latency::.cpu.data 38115.112864                       # average overall miss latency
system.cpu.dcache.overall_avg_miss_latency::total 38115.112864                       # average overall miss latency
system.cpu.dcache.blocked_cycles::no_mshrs      5742283                       # number of cycles access was blocked
system.cpu.dcache.blocked_cycles::no_targets          194                       # number of cycles access was blocked
system.cpu.dcache.blocked::no_mshrs            793645                       # number of cycles access was blocked
system.cpu.dcache.blocked::no_targets               1                       # number of cycles access was blocked
system.cpu.dcache.avg_blocked_cycles::no_mshrs     7.235329                       # average number of cycles each access was blocked
system.cpu.dcache.avg_blocked_cycles::no_targets          194                       # average number of cycles each access was blocked
system.cpu.dcache.writebacks::.writebacks         1712                       # number of writebacks
system.cpu.dcache.writebacks::total              1712                       # number of writebacks
system.cpu.dcache.demand_mshr_hits::.cpu.data      1911951                       # number of demand (read+write) MSHR hits
system.cpu.dcache.demand_mshr_hits::total      1911951                       # number of demand (read+write) MSHR hits
system.cpu.dcache.overall_mshr_hits::.cpu.data      1911951                       # number of overall MSHR hits
system.cpu.dcache.overall_mshr_hits::total      1911951                       # number of overall MSHR hits
system.cpu.dcache.demand_mshr_misses::.cpu.data      1136227                       # number of demand (read+write) MSHR misses
system.cpu.dcache.demand_mshr_misses::total      1136227                       # number of demand (read+write) MSHR misses
system.cpu.dcache.overall_mshr_misses::.cpu.data      1136227                       # number of overall MSHR misses
system.cpu.dcache.overall_mshr_misses::total      1136227                       # number of overall MSHR misses
system.cpu.dcache.demand_mshr_miss_latency::.cpu.data  17668528500                       # number of demand (read+write) MSHR miss cycles
system.cpu.dcache.demand_mshr_miss_latency::total  17668528500                       # number of demand (read+write) MSHR miss cycles
system.cpu.dcache.overall_mshr_miss_latency::.cpu.data  17668528500                       # number of overall MSHR miss cycles
system.cpu.dcache.overall_mshr_miss_latency::total  17668528500                       # number of overall MSHR miss cycles
system.cpu.dcache.demand_mshr_miss_rate::.cpu.data     0.233696                       # mshr miss rate for demand accesses
system.cpu.dcache.demand_mshr_miss_rate::total     0.233696                       # mshr miss rate for demand accesses
system.cpu.dcache.overall_mshr_miss_rate::.cpu.data     0.233696                       # mshr miss rate for overall accesses
system.cpu.dcache.overall_mshr_miss_rate::total     0.233696                       # mshr miss rate for overall accesses
system.cpu.dcache.demand_avg_mshr_miss_latency::.cpu.data 15550.174833                       # average overall mshr miss latency
system.cpu.dcache.demand_avg_mshr_miss_latency::total 15550.174833                       # average overall mshr miss latency
system.cpu.dcache.overall_avg_mshr_miss_latency::.cpu.data 15550.174833                       # average overall mshr miss latency
system.cpu.dcache.overall_avg_mshr_miss_latency::total 15550.174833                       # average overall mshr miss latency
system.cpu.dcache.replacements                1134179                       # number of replacements
system.cpu.dcache.ReadReq_hits::.cpu.data      1788301                       # number of ReadReq hits
system.cpu.dcache.ReadReq_hits::total         1788301                       # number of ReadReq hits
system.cpu.dcache.ReadReq_misses::.cpu.data      3048086                       # number of ReadReq misses
system.cpu.dcache.ReadReq_misses::total       3048086                       # number of ReadReq misses
system.cpu.dcache.ReadReq_miss_latency::.cpu.data 116176033000                       # number of ReadReq miss cycles
system.cpu.dcache.ReadReq_miss_latency::total 116176033000                       # number of ReadReq miss cycles
system.cpu.dcache.ReadReq_accesses::.cpu.data      4836387                       # number of ReadReq accesses(hits+misses)
system.cpu.dcache.ReadReq_accesses::total      4836387                       # number of ReadReq accesses(hits+misses)
system.cpu.dcache.ReadReq_miss_rate::.cpu.data     0.630240                       # miss rate for ReadReq accesses
system.cpu.dcache.ReadReq_miss_rate::total     0.630240                       # miss rate for ReadReq accesses
system.cpu.dcache.ReadReq_avg_miss_latency::.cpu.data 38114.420984                       # average ReadReq miss latency
system.cpu.dcache.ReadReq_avg_miss_latency::total 38114.420984                       # average ReadReq miss latency
system.cpu.dcache.ReadReq_mshr_hits::.cpu.data      1911950                       # number of ReadReq MSHR hits
system.cpu.dcache.ReadReq_mshr_hits::total      1911950                       # number of ReadReq MSHR hits
system.cpu.dcache.ReadReq_mshr_misses::.cpu.data      1136136                       # number of ReadReq MSHR misses
system.cpu.dcache.ReadReq_mshr_misses::total      1136136                       # number of ReadReq MSHR misses
system.cpu.dcache.ReadReq_mshr_miss_latency::.cpu.data  17662999000                       # number of ReadReq MSHR miss cycles
system.cpu.dcache.ReadReq_mshr_miss_latency::total  17662999000                       # number of ReadReq MSHR miss cycles
system.cpu.dcache.ReadReq_mshr_miss_rate::.cpu.data     0.234914                       # mshr miss rate for ReadReq accesses
system.cpu.dcache.ReadReq_mshr_miss_rate::total     0.234914                       # mshr miss rate for ReadReq accesses
system.cpu.dcache.ReadReq_avg_mshr_miss_latency::.cpu.data 15546.553406                       # average ReadReq mshr miss latency
system.cpu.dcache.ReadReq_avg_mshr_miss_latency::total 15546.553406                       # average ReadReq mshr miss latency
system.cpu.dcache.WriteReq_hits::.cpu.data        25499                       # number of WriteReq hits
system.cpu.dcache.WriteReq_hits::total          25499                       # number of WriteReq hits
system.cpu.dcache.WriteReq_misses::.cpu.data           92                       # number of WriteReq misses
system.cpu.dcache.WriteReq_misses::total           92                       # number of WriteReq misses
system.cpu.dcache.WriteReq_miss_latency::.cpu.data      5615500                       # number of WriteReq miss cycles
system.cpu.dcache.WriteReq_miss_latency::total      5615500                       # number of WriteReq miss cycles
system.cpu.dcache.WriteReq_accesses::.cpu.data        25591                       # number of WriteReq accesses(hits+misses)
system.cpu.dcache.WriteReq_accesses::total        25591                       # number of WriteReq accesses(hits+misses)
system.cpu.dcache.WriteReq_miss_rate::.cpu.data     0.003595                       # miss rate for WriteReq accesses
system.cpu.dcache.WriteReq_miss_rate::total     0.003595                       # miss rate for WriteReq accesses
system.cpu.dcache.WriteReq_avg_miss_latency::.cpu.data 61038.043478                       # average WriteReq miss latency
system.cpu.dcache.WriteReq_avg_miss_latency::total 61038.043478                       # average WriteReq miss latency
system.cpu.dcache.WriteReq_mshr_hits::.cpu.data            1                       # number of WriteReq MSHR hits
system.cpu.dcache.WriteReq_mshr_hits::total            1                       # number of WriteReq MSHR hits
system.cpu.dcache.WriteReq_mshr_misses::.cpu.data           91                       # number of WriteReq MSHR misses
system.cpu.dcache.WriteReq_mshr_misses::total           91                       # number of WriteReq MSHR misses
system.cpu.dcache.WriteReq_mshr_miss_latency::.cpu.data      5529500                       # number of WriteReq MSHR miss cycles
system.cpu.dcache.WriteReq_mshr_miss_latency::total      5529500                       # number of WriteReq MSHR miss cycles
system.cpu.dcache.WriteReq_mshr_miss_rate::.cpu.data     0.003556                       # mshr miss rate for WriteReq accesses
system.cpu.dcache.WriteReq_mshr_miss_rate::total     0.003556                       # mshr miss rate for WriteReq accesses
system.cpu.dcache.WriteReq_avg_mshr_miss_latency::.cpu.data 60763.736264                       # average WriteReq mshr miss latency
system.cpu.dcache.WriteReq_avg_mshr_miss_latency::total 60763.736264                       # average WriteReq mshr miss latency
system.cpu.dcache.tags.pwrStateResidencyTicks::UNDEFINED   7155485750                       # Cumulative time (in ticks) in various power states
system.cpu.dcache.tags.tagsinuse          2037.465812                       # Cycle average of tags in use
system.cpu.dcache.tags.total_refs             2950027                       # Total number of references to valid blocks.
system.cpu.dcache.tags.sampled_refs           1136227                       # Sample count of references to valid blocks.
system.cpu.dcache.tags.avg_refs              2.596336                       # Average number of references to valid blocks.
system.cpu.dcache.tags.warmup_cycle            142000                       # Cycle when the warmup percentage was hit.
system.cpu.dcache.tags.occ_blocks::.cpu.data  2037.465812                       # Average occupied blocks per requestor
system.cpu.dcache.tags.occ_percent::.cpu.data     0.994856                       # Average percentage of cache occupancy
system.cpu.dcache.tags.occ_percent::total     0.994856                       # Average percentage of cache occupancy
system.cpu.dcache.tags.occ_task_id_blocks::1024         2048                       # Occupied blocks per task id
system.cpu.dcache.tags.age_task_id_blocks_1024::0         1194                       # Occupied blocks per task id
system.cpu.dcache.tags.age_task_id_blocks_1024::1          854                       # Occupied blocks per task id
system.cpu.dcache.tags.occ_task_id_percent::1024            1                       # Percentage of cache occupancy per task id
system.cpu.dcache.tags.tag_accesses          10860183                       # Number of tag accesses
system.cpu.dcache.tags.data_accesses         10860183                       # Number of data accesses
system.l2cache.pwrStateResidencyTicks::UNDEFINED   7155485750                       # Cumulative time (in ticks) in various power states
system.l2cache.demand_hits::.cpu.inst               1                       # number of demand (read+write) hits
system.l2cache.demand_hits::.cpu.data          935365                       # number of demand (read+write) hits
system.l2cache.demand_hits::total              935366                       # number of demand (read+write) hits
system.l2cache.overall_hits::.cpu.inst              1                       # number of overall hits
system.l2cache.overall_hits::.cpu.data         935365                       # number of overall hits
system.l2cache.overall_hits::total             935366                       # number of overall hits
system.l2cache.demand_misses::.cpu.inst           315                       # number of demand (read+write) misses
system.l2cache.demand_misses::.cpu.data        200862                       # number of demand (read+write) misses
system.l2cache.demand_misses::total            201177                       # number of demand (read+write) misses
system.l2cache.overall_misses::.cpu.inst          315                       # number of overall misses
system.l2cache.overall_misses::.cpu.data       200862                       # number of overall misses
system.l2cache.overall_misses::total           201177                       # number of overall misses
system.l2cache.demand_miss_latency::.cpu.inst     18449000                       # number of demand (read+write) miss cycles
system.l2cache.demand_miss_latency::.cpu.data  11658504500                       # number of demand (read+write) miss cycles
system.l2cache.demand_miss_latency::total  11676953500                       # number of demand (read+write) miss cycles
system.l2cache.overall_miss_latency::.cpu.inst     18449000                       # number of overall miss cycles
system.l2cache.overall_miss_latency::.cpu.data  11658504500                       # number of overall miss cycles
system.l2cache.overall_miss_latency::total  11676953500                       # number of overall miss cycles
system.l2cache.demand_accesses::.cpu.inst          316                       # number of demand (read+write) accesses
[...]
system.mem_ctrl.wrQLenPdf::7                        1                       # What write queue length does an incoming req see
system.mem_ctrl.wrQLenPdf::8                        1                       # What write queue length does an incoming req see
system.mem_ctrl.wrQLenPdf::9                        1                       # What write queue length does an incoming req see
system.mem_ctrl.wrQLenPdf::10                       1                       # What write queue length does an incoming req see
system.mem_ctrl.wrQLenPdf::11                       1                       # What write queue length does an incoming req see
system.mem_ctrl.wrQLenPdf::12                       1                       # What write queue length does an incoming req see
system.mem_ctrl.wrQLenPdf::13                       1                       # What write queue length does an incoming req see
system.mem_ctrl.wrQLenPdf::14                       1                       # What write queue length does an incoming req see
system.mem_ctrl.wrQLenPdf::15                       1                       # What write queue length does an incoming req see
system.mem_ctrl.wrQLenPdf::16                       2                       # What write queue length does an incoming req see
system.mem_ctrl.wrQLenPdf::17                      96                       # What write queue length does an incoming req see
system.mem_ctrl.wrQLenPdf::18                      96                       # What write queue length does an incoming req see
system.mem_ctrl.wrQLenPdf::19                      96                       # What write queue length does an incoming req see
system.mem_ctrl.wrQLenPdf::20                      97                       # What write queue length does an incoming req see
system.mem_ctrl.wrQLenPdf::21                      96                       # What write queue length does an incoming req see
system.mem_ctrl.wrQLenPdf::22                      96                       # What write queue length does an incoming req see
system.mem_ctrl.wrQLenPdf::23                      96                       # What write queue length does an incoming req see
system.mem_ctrl.wrQLenPdf::24                      96                       # What write queue length does an incoming req see
system.mem_ctrl.wrQLenPdf::25                      96                       # What write queue length does an incoming req see
system.mem_ctrl.wrQLenPdf::26                      96                       # What write queue length does an incoming req see
system.mem_ctrl.wrQLenPdf::27                      96                       # What write queue length does an incoming req see
system.mem_ctrl.wrQLenPdf::28                      96                       # What write queue length does an incoming req see
system.mem_ctrl.wrQLenPdf::29                      96                       # What write queue length does an incoming req see
system.mem_ctrl.wrQLenPdf::30                      96                       # What write queue length does an incoming req see
system.mem_ctrl.wrQLenPdf::31                      95                       # What write queue length does an incoming req see
system.mem_ctrl.wrQLenPdf::32                      95                       # What write queue length does an incoming req see
system.mem_ctrl.wrQLenPdf::33                       0                       # What write queue length does an incoming req see
system.mem_ctrl.wrQLenPdf::34                       0                       # What write queue length does an incoming req see
system.mem_ctrl.wrQLenPdf::35                       0                       # What write queue length does an incoming req see
system.mem_ctrl.wrQLenPdf::36                       0                       # What write queue length does an incoming req see
system.mem_ctrl.wrQLenPdf::37                       0                       # What write queue length does an incoming req see
system.mem_ctrl.wrQLenPdf::38                       0                       # What write queue length does an incoming req see
system.mem_ctrl.wrQLenPdf::39                       0                       # What write queue length does an incoming req see
system.mem_ctrl.wrQLenPdf::40                       0                       # What write queue length does an incoming req see
system.mem_ctrl.wrQLenPdf::41                       0                       # What write queue length does an incoming req see
system.mem_ctrl.wrQLenPdf::42                       0                       # What write queue length does an incoming req see
system.mem_ctrl.wrQLenPdf::43                       0                       # What write queue length does an incoming req see
system.mem_ctrl.wrQLenPdf::44                       0                       # What write queue length does an incoming req see
system.mem_ctrl.wrQLenPdf::45                       0                       # What write queue length does an incoming req see
system.mem_ctrl.wrQLenPdf::46                       0                       # What write queue length does an incoming req see
system.mem_ctrl.wrQLenPdf::47                       0                       # What write queue length does an incoming req see
system.mem_ctrl.wrQLenPdf::48                       0                       # What write queue length does an incoming req see
system.mem_ctrl.wrQLenPdf::49                       0                       # What write queue length does an incoming req see
system.mem_ctrl.wrQLenPdf::50                       0                       # What write queue length does an incoming req see
system.mem_ctrl.wrQLenPdf::51                       0                       # What write queue length does an incoming req see
system.mem_ctrl.wrQLenPdf::52                       0                       # What write queue length does an incoming req see
system.mem_ctrl.wrQLenPdf::53                       0                       # What write queue length does an incoming req see
system.mem_ctrl.wrQLenPdf::54                       0                       # What write queue length does an incoming req see
system.mem_ctrl.wrQLenPdf::55                       0                       # What write queue length does an incoming req see
system.mem_ctrl.wrQLenPdf::56                       0                       # What write queue length does an incoming req see
system.mem_ctrl.wrQLenPdf::57                       0                       # What write queue length does an incoming req see
system.mem_ctrl.wrQLenPdf::58                       0                       # What write queue length does an incoming req see
system.mem_ctrl.wrQLenPdf::59                       0                       # What write queue length does an incoming req see
system.mem_ctrl.wrQLenPdf::60                       0                       # What write queue length does an incoming req see
system.mem_ctrl.wrQLenPdf::61                       0                       # What write queue length does an incoming req see
system.mem_ctrl.wrQLenPdf::62                       0                       # What write queue length does an incoming req see
system.mem_ctrl.wrQLenPdf::63                       0                       # What write queue length does an incoming req see
system.mem_ctrl.bytesPerActivate::samples        18652                       # Bytes accessed per row activation
system.mem_ctrl.bytesPerActivate::mean     695.363500                       # Bytes accessed per row activation
system.mem_ctrl.bytesPerActivate::gmean    473.598891                       # Bytes accessed per row activation
system.mem_ctrl.bytesPerActivate::stdev    409.863810                       # Bytes accessed per row activation
system.mem_ctrl.bytesPerActivate::0-127          2826     15.15%     15.15% # Bytes accessed per row activation
system.mem_ctrl.bytesPerActivate::128-255         2228     11.95%     27.10% # Bytes accessed per row activation
system.mem_ctrl.bytesPerActivate::256-383          739      3.96%     31.06% # Bytes accessed per row activation
system.mem_ctrl.bytesPerActivate::384-511          542      2.91%     33.96% # Bytes accessed per row activation
system.mem_ctrl.bytesPerActivate::512-639          485      2.60%     36.56% # Bytes accessed per row activation
system.mem_ctrl.bytesPerActivate::640-767          561      3.01%     39.57% # Bytes accessed per row activation
system.mem_ctrl.bytesPerActivate::768-895          482      2.58%     42.16% # Bytes accessed per row activation
system.mem_ctrl.bytesPerActivate::896-1023          421      2.26%     44.41% # Bytes accessed per row activation
system.mem_ctrl.bytesPerActivate::1024-1151        10368     55.59%    100.00% # Bytes accessed per row activation
system.mem_ctrl.bytesPerActivate::total         18652                       # Bytes accessed per row activation
system.mem_ctrl.rdPerTurnAround::samples           95                       # Reads before turning the bus around for writes
system.mem_ctrl.rdPerTurnAround::mean     2085.978947                       # Reads before turning the bus around for writes
system.mem_ctrl.rdPerTurnAround::gmean    1039.585653                       # Reads before turning the bus around for writes
system.mem_ctrl.rdPerTurnAround::stdev    2074.092393                       # Reads before turning the bus around for writes
system.mem_ctrl.rdPerTurnAround::0-511             21     22.11%     22.11% # Reads before turning the bus around for writes
system.mem_ctrl.rdPerTurnAround::512-1023            9      9.47%     31.58% # Reads before turning the bus around for writes
system.mem_ctrl.rdPerTurnAround::1024-1535           20     21.05%     52.63% # Reads before turning the bus around for writes
system.mem_ctrl.rdPerTurnAround::1536-2047            1      1.05%     53.68% # Reads before turning the bus around for writes
system.mem_ctrl.rdPerTurnAround::2048-2559            1      1.05%     54.74% # Reads before turning the bus around for writes
system.mem_ctrl.rdPerTurnAround::2560-3071            4      4.21%     58.95% # Reads before turning the bus around for writes
system.mem_ctrl.rdPerTurnAround::3072-3583           23     24.21%     83.16% # Reads before turning the bus around for writes
system.mem_ctrl.rdPerTurnAround::3584-4095           12     12.63%     95.79% # Reads before turning the bus around for writes
system.mem_ctrl.rdPerTurnAround::4096-4607            2      2.11%     97.89% # Reads before turning the bus around for writes
system.mem_ctrl.rdPerTurnAround::5632-6143            1      1.05%     98.95% # Reads before turning the bus around for writes
system.mem_ctrl.rdPerTurnAround::15872-16383            1      1.05%    100.00% # Reads before turning the bus around for writes
system.mem_ctrl.rdPerTurnAround::total             95                       # Reads before turning the bus around for writes
system.mem_ctrl.wrPerTurnAround::samples           95                       # Writes before turning the bus around for reads
system.mem_ctrl.wrPerTurnAround::mean       16.021053                       # Writes before turning the bus around for reads
system.mem_ctrl.wrPerTurnAround::gmean      16.019849                       # Writes before turning the bus around for reads
system.mem_ctrl.wrPerTurnAround::stdev       0.205196                       # Writes before turning the bus around for reads
system.mem_ctrl.wrPerTurnAround::16                94     98.95%     98.95% # Writes before turning the bus around for reads
system.mem_ctrl.wrPerTurnAround::18                 1      1.05%    100.00% # Writes before turning the bus around for reads
system.mem_ctrl.wrPerTurnAround::total             95                       # Writes before turning the bus around for reads
system.mem_ctrl.bytesReadDRAM                12875264                       # Total number of bytes read from DRAM
system.mem_ctrl.bytesReadWrQ                        0                       # Total number of bytes read from write queue
system.mem_ctrl.bytesWritten                    97408                       # Total number of bytes written to DRAM
system.mem_ctrl.bytesReadSys                 12875264                       # Total read bytes from the system interface side
system.mem_ctrl.bytesWrittenSys                 99392                       # Total written bytes from the system interface side
system.mem_ctrl.avgRdBW                       1799.36                       # Average DRAM read bandwidth in MiByte/s
system.mem_ctrl.avgWrBW                         13.61                       # Average achieved write bandwidth in MiByte/s
system.mem_ctrl.avgRdBWSys                    1799.36                       # Average system read bandwidth in MiByte/s
system.mem_ctrl.avgWrBWSys                      13.89                       # Average system write bandwidth in MiByte/s
system.mem_ctrl.peakBW                       12800.00                       # Theoretical peak bandwidth in MiByte/s
system.mem_ctrl.busUtil                         14.16                       # Data bus utilization in percentage
system.mem_ctrl.busUtilRead                     14.06                       # Data bus utilization in percentage for reads
system.mem_ctrl.busUtilWrite                     0.11                       # Data bus utilization in percentage for writes
system.mem_ctrl.totGap                     7155419750                       # Total gap between requests
system.mem_ctrl.avgGap                       35295.49                       # Average gap between requests
system.mem_ctrl.masterReadBytes::.cpu.inst        20096                       # Per-master bytes read from memory
system.mem_ctrl.masterReadBytes::.cpu.data     12855168                       # Per-master bytes read from memory
system.mem_ctrl.masterWriteBytes::.writebacks        97408                       # Per-master bytes write to memory
system.mem_ctrl.masterReadRate::.cpu.inst 2808474.602859770879                       # Per-master bytes read from memory rate (Bytes/sec)
system.mem_ctrl.masterReadRate::.cpu.data 1796547215.540188789368                       # Per-master bytes read from memory rate (Bytes/sec)
system.mem_ctrl.masterWriteRate::.writebacks 13613052.055899908766                       # Per-master bytes write to memory rate (Bytes/sec)
system.mem_ctrl.masterReadAccesses::.cpu.inst          314                       # Per-master read serviced memory accesses
system.mem_ctrl.masterReadAccesses::.cpu.data       200862                       # Per-master read serviced memory accesses
system.mem_ctrl.masterWriteAccesses::.writebacks         1553                       # Per-master write serviced memory accesses
system.mem_ctrl.masterReadTotalLat::.cpu.inst      8165500                       # Per-master read total memory access latency
system.mem_ctrl.masterReadTotalLat::.cpu.data   5080274000                       # Per-master read total memory access latency
system.mem_ctrl.masterWriteTotalLat::.writebacks 160939746000                       # Per-master write total memory access latency
system.mem_ctrl.masterReadAvgLat::.cpu.inst     26004.78                       # Per-master read average memory access latency
system.mem_ctrl.masterReadAvgLat::.cpu.data     25292.36                       # Per-master read average memory access latency
system.mem_ctrl.masterWriteAvgLat::.writebacks 103631517.06                       # Per-master write average memory access latency
system.mem_ctrl.pageHitRate                     90.78                       # Row buffer hit rate, read and write combined
system.mem_ctrl.rank1.actEnergy              62660640                       # Energy for activate commands per rank (pJ)
system.mem_ctrl.rank1.preEnergy              33278355                       # Energy for precharge commands per rank (pJ)
system.mem_ctrl.rank1.readEnergy            710951220                       # Energy for read commands per rank (pJ)
system.mem_ctrl.rank1.writeEnergy             2683080                       # Energy for write commands per rank (pJ)
system.mem_ctrl.rank1.refreshEnergy      564239520.000000                       # Energy for refresh commands per rank (pJ)
system.mem_ctrl.rank1.actBackEnergy        2857897920                       # Energy for active background per rank (pJ)
system.mem_ctrl.rank1.preBackEnergy         341055840                       # Energy for precharge background per rank (pJ)
system.mem_ctrl.rank1.actPowerDownEnergy            0                       # Energy for active power-down per rank (pJ)
system.mem_ctrl.rank1.prePowerDownEnergy            0                       # Energy for precharge power-down per rank (pJ)
system.mem_ctrl.rank1.selfRefreshEnergy             0                       # Energy for self refresh per rank (pJ)
system.mem_ctrl.rank1.totalEnergy          4572766575                       # Total energy per rank (pJ)
system.mem_ctrl.rank1.averagePower         639.057464                       # Core power per rank (mW)
system.mem_ctrl.rank1.totalIdleTime                 0                       # Total Idle time Per DRAM Rank
system.mem_ctrl.rank1.memoryStateTime::IDLE    844234750                       # Time in different power states
system.mem_ctrl.rank1.memoryStateTime::REF    238680000                       # Time in different power states
system.mem_ctrl.rank1.memoryStateTime::SREF            0                       # Time in different power states
system.mem_ctrl.rank1.memoryStateTime::PRE_PDN            0                       # Time in different power states
system.mem_ctrl.rank1.memoryStateTime::ACT   6072571000                       # Time in different power states
system.mem_ctrl.rank1.memoryStateTime::ACT_PDN            0                       # Time in different power states
system.mem_ctrl.rank0.actEnergy              70593180                       # Energy for activate commands per rank (pJ)
system.mem_ctrl.rank0.preEnergy              37505985                       # Energy for precharge commands per rank (pJ)
system.mem_ctrl.rank0.readEnergy            725445420                       # Energy for read commands per rank (pJ)
system.mem_ctrl.rank0.writeEnergy             5261760                       # Energy for write commands per rank (pJ)
system.mem_ctrl.rank0.refreshEnergy      564239520.000000                       # Energy for refresh commands per rank (pJ)
system.mem_ctrl.rank0.actBackEnergy        3044957670                       # Energy for active background per rank (pJ)
system.mem_ctrl.rank0.preBackEnergy         183531840                       # Energy for precharge background per rank (pJ)
system.mem_ctrl.rank0.actPowerDownEnergy            0                       # Energy for active power-down per rank (pJ)
system.mem_ctrl.rank0.prePowerDownEnergy            0                       # Energy for precharge power-down per rank (pJ)
system.mem_ctrl.rank0.selfRefreshEnergy             0                       # Energy for self refresh per rank (pJ)
system.mem_ctrl.rank0.totalEnergy          4631535375                       # Total energy per rank (pJ)
system.mem_ctrl.rank0.averagePower         647.270575                       # Core power per rank (mW)
system.mem_ctrl.rank0.totalIdleTime                 0                       # Total Idle time Per DRAM Rank
system.mem_ctrl.rank0.memoryStateTime::IDLE    437574000                       # Time in different power states
system.mem_ctrl.rank0.memoryStateTime::REF    238680000                       # Time in different power states
system.mem_ctrl.rank0.memoryStateTime::SREF            0                       # Time in different power states
system.mem_ctrl.rank0.memoryStateTime::PRE_PDN            0                       # Time in different power states
system.mem_ctrl.rank0.memoryStateTime::ACT   6479231750                       # Time in different power states
system.mem_ctrl.rank0.memoryStateTime::ACT_PDN            0                       # Time in different power states

---------- End Simulation Statistics   ----------
