
---------- Begin Simulation Statistics ----------
final_tick                                31371862000                       # Number of ticks from beginning of simulation (restored from checkpoints and never reset)
host_inst_rate                                 191445                       # Simulator instruction rate (inst/s)
host_mem_usage                                 794772                       # Number of bytes of host memory used
host_op_rate                                   294638                       # Simulator op (including micro ops) rate (op/s)
host_seconds                                    75.00                       # Real time elapsed on the host
host_tick_rate                              418271486                       # Simulator tick rate (ticks/s)
sim_freq                                 1000000000000                       # Frequency of simulated ticks
sim_insts                                    14359018                       # Number of instructions simulated
sim_ops                                      22098934                       # Number of ops (including micro ops) simulated
sim_seconds                                  0.031372                       # Number of seconds simulated
sim_ticks                                 31371862000                       # Number of ticks simulated
system.cpu.branchPred.BTBCorrect                    0                       # Number of correct BTB predictions (this stat may not work properly.
system.cpu.branchPred.BTBHitPct              0.000000                       # BTB Hit Percentage
system.cpu.branchPred.BTBHits                       0                       # Number of BTB hits
system.cpu.branchPred.BTBLookups                    5                       # Number of BTB lookups
system.cpu.branchPred.RASInCorrect                  0                       # Number of incorrect RAS predictions.
system.cpu.branchPred.condIncorrect                 6                       # Number of conditional branches incorrect
system.cpu.branchPred.condPredicted                10                       # Number of conditional branches predicted
system.cpu.branchPred.indirectHits                  0                       # Number of indirect target hits.
system.cpu.branchPred.indirectLookups               5                       # Number of indirect predictor lookups.
system.cpu.branchPred.indirectMisses                5                       # Number of indirect misses.
system.cpu.branchPred.lookups                      10                       # Number of BP lookups
system.cpu.branchPred.usedRAS                       0                       # Number of times the RAS was used to get a target.
system.cpu.branchPredindirectMispredicted            1                       # Number of mispredicted indirect branches.
system.cpu.committedInsts                    14359018                       # Number of instructions committed
system.cpu.committedOps                      22098934                       # Number of ops (including micro ops) committed
system.cpu.cpi                               2.184819                       # CPI: cycles per instruction
system.cpu.discardedOps                       1244938                       # Number of ops (including micro ops) which were discarded before commit
system.cpu.dtb.rdAccesses                     5048035                       # TLB accesses on read requests
system.cpu.dtb.rdMisses                            86                       # TLB misses on read requests
system.cpu.dtb.wrAccesses                     2098535                       # TLB accesses on write requests
system.cpu.dtb.wrMisses                             8                       # TLB misses on write requests
system.cpu.fetch2.amo_instructions                  0                       # Number of memory atomic instructions successfully decoded
system.cpu.fetch2.fp_instructions                   0                       # Number of floating point instructions successfully decoded
system.cpu.fetch2.int_instructions                  9                       # Number of integer instructions successfully decoded
system.cpu.fetch2.load_instructions                 0                       # Number of memory load instructions successfully decoded
system.cpu.fetch2.store_instructions                0                       # Number of memory store instructions successfully decoded
system.cpu.fetch2.vec_instructions                  0                       # Number of SIMD instructions successfully decoded
system.cpu.idleCycles                          566216                       # Total number of cycles that the object has spent stopped
system.cpu.ipc                               0.457704                       # IPC: instructions per cycle
system.cpu.itb.rdAccesses                           0                       # TLB accesses on read requests
system.cpu.itb.rdMisses                             0                       # TLB misses on read requests
system.cpu.itb.wrAccesses                     2132173                       # TLB accesses on write requests
system.cpu.itb.wrMisses                            31                       # TLB misses on write requests
system.cpu.numCycles                         31371862                       # number of cpu cycles simulated
system.cpu.numFetchSuspends                         0                       # Number of times Execute suspended instruction fetching
system.cpu.numWorkItemsCompleted                    0                       # number of work items this cpu completed
system.cpu.numWorkItemsStarted                      0                       # number of work items this cpu started
system.cpu.op_class_0::No_OpClass               33063      0.15%      0.15% # Class of committed instruction
system.cpu.op_class_0::IntAlu                 7055064     31.92%     32.07% # Class of committed instruction
system.cpu.op_class_0::IntMult                      5      0.00%     32.07% # Class of committed instruction
system.cpu.op_class_0::IntDiv                      21      0.00%     32.07% # Class of committed instruction
system.cpu.op_class_0::FloatAdd               4194306     18.98%     51.05% # Class of committed instruction
system.cpu.op_class_0::FloatCmp                     0      0.00%     51.05% # Class of committed instruction
system.cpu.op_class_0::FloatCvt                     0      0.00%     51.05% # Class of committed instruction
system.cpu.op_class_0::FloatMult                    0      0.00%     51.05% # Class of committed instruction
system.cpu.op_class_0::FloatMultAcc                 0      0.00%     51.05% # Class of committed instruction
system.cpu.op_class_0::FloatDiv                     0      0.00%     51.05% # Class of committed instruction
system.cpu.op_class_0::FloatMisc                    0      0.00%     51.05% # Class of committed instruction
system.cpu.op_class_0::FloatSqrt                    0      0.00%     51.05% # Class of committed instruction
system.cpu.op_class_0::SimdAdd                      0      0.00%     51.05% # Class of committed instruction
system.cpu.op_class_0::SimdAddAcc                   0      0.00%     51.05% # Class of committed instruction
system.cpu.op_class_0::SimdAlu                     34      0.00%     51.05% # Class of committed instruction
system.cpu.op_class_0::SimdCmp                      0      0.00%     51.05% # Class of committed instruction
system.cpu.op_class_0::SimdCvt                     28      0.00%     51.05% # Class of committed instruction
system.cpu.op_class_0::SimdMisc                    42      0.00%     51.05% # Class of committed instruction
system.cpu.op_class_0::SimdMult                     0      0.00%     51.05% # Class of committed instruction
system.cpu.op_class_0::SimdMultAcc                  0      0.00%     51.05% # Class of committed instruction
system.cpu.op_class_0::SimdShift                    0      0.00%     51.05% # Class of committed instruction
system.cpu.op_class_0::SimdShiftAcc                 0      0.00%     51.05% # Class of committed instruction
system.cpu.op_class_0::SimdDiv                      0      0.00%     51.05% # Class of committed instruction
system.cpu.op_class_0::SimdSqrt                     0      0.00%     51.05% # Class of committed instruction
system.cpu.op_class_0::SimdFloatAdd           2097152      9.49%     60.54% # Class of committed instruction
system.cpu.op_class_0::SimdFloatAlu                 0      0.00%     60.54% # Class of committed instruction
system.cpu.op_class_0::SimdFloatCmp                 0      0.00%     60.54% # Class of committed instruction
system.cpu.op_class_0::SimdFloatCvt                 0      0.00%     60.54% # Class of committed instruction
system.cpu.op_class_0::SimdFloatDiv                 0      0.00%     60.54% # Class of committed instruction
system.cpu.op_class_0::SimdFloatMisc                0      0.00%     60.54% # Class of committed instruction
system.cpu.op_class_0::SimdFloatMult          2097152      9.49%     70.03% # Class of committed instruction
system.cpu.op_class_0::SimdFloatMultAcc             0      0.00%     70.03% # Class of committed instruction
system.cpu.op_class_0::SimdFloatSqrt                0      0.00%     70.03% # Class of committed instruction
system.cpu.op_class_0::SimdReduceAdd                0      0.00%     70.03% # Class of committed instruction
system.cpu.op_class_0::SimdReduceAlu                0      0.00%     70.03% # Class of committed instruction
system.cpu.op_class_0::SimdReduceCmp                0      0.00%     70.03% # Class of committed instruction
system.cpu.op_class_0::SimdFloatReduceAdd            0      0.00%     70.03% # Class of committed instruction
system.cpu.op_class_0::SimdFloatReduceCmp            0      0.00%     70.03% # Class of committed instruction
system.cpu.op_class_0::SimdAes                      0      0.00%     70.03% # Class of committed instruction
system.cpu.op_class_0::SimdAesMix                   0      0.00%     70.03% # Class of committed instruction
system.cpu.op_class_0::SimdSha1Hash                 0      0.00%     70.03% # Class of committed instruction
system.cpu.op_class_0::SimdSha1Hash2                0      0.00%     70.03% # Class of committed instruction
system.cpu.op_class_0::SimdSha256Hash               0      0.00%     70.03% # Class of committed instruction
system.cpu.op_class_0::SimdSha256Hash2              0      0.00%     70.03% # Class of committed instruction
system.cpu.op_class_0::SimdShaSigma2                0      0.00%     70.03% # Class of committed instruction
system.cpu.op_class_0::SimdShaSigma3                0      0.00%     70.03% # Class of committed instruction
system.cpu.op_class_0::SimdPredAlu                  0      0.00%     70.03% # Class of committed instruction
system.cpu.op_class_0::MemRead                  67099      0.30%     70.34% # Class of committed instruction
system.cpu.op_class_0::MemWrite                  1192      0.01%     70.34% # Class of committed instruction
system.cpu.op_class_0::FloatMemRead           4456472     20.17%     90.51% # Class of committed instruction
system.cpu.op_class_0::FloatMemWrite          2097304      9.49%    100.00% # Class of committed instruction
system.cpu.op_class_0::IprAccess                    0      0.00%    100.00% # Class of committed instruction
system.cpu.op_class_0::InstPrefetch                 0      0.00%    100.00% # Class of committed instruction
system.cpu.op_class_0::total                 22098934                       # Class of committed instruction
system.cpu.tickCycles                        30805646                       # Number of cycles that the object actually ticked
system.cpu.workload.numSyscalls                     7                       # Number of system calls
system.l2bus.snoop_filter.hit_multi_requests            1                       # Number of requests hitting in the snoop filter with multiple (>1) holders of the requested data.
system.l2bus.snoop_filter.hit_multi_snoops            0                       # Number of snoops hitting in the snoop filter with multiple (>1) holders of the requested data.
system.l2bus.snoop_filter.hit_single_requests         8564                       # Number of requests hitting in the snoop filter with a single holder of the requested data.
system.l2bus.snoop_filter.hit_single_snoops            0                       # Number of snoops hitting in the snoop filter with a single holder of the requested data.
system.l2bus.snoop_filter.tot_requests          19556                       # Total number of requests made to the snoop filter.
system.l2bus.snoop_filter.tot_snoops                0                       # Total number of snoops made to the snoop filter.
system.membus.snoop_filter.hit_multi_requests            0                       # Number of requests hitting in the snoop filter with multiple (>1) holders of the requested data.
system.membus.snoop_filter.hit_multi_snoops            0                       # Number of snoops hitting in the snoop filter with multiple (>1) holders of the requested data.
system.membus.snoop_filter.hit_single_requests            0                       # Number of requests hitting in the snoop filter with a single holder of the requested data.
system.membus.snoop_filter.hit_single_snoops            0                       # Number of snoops hitting in the snoop filter with a single holder of the requested data.
system.membus.snoop_filter.tot_requests          3615                       # Total number of requests made to the snoop filter.
system.membus.snoop_filter.tot_snoops               0                       # Total number of snoops made to the snoop filter.
system.membus.pwrStateResidencyTicks::UNDEFINED  31371862000                       # Cumulative time (in ticks) in various power states
system.membus.trans_dist::ReadResp               3522                       # Transaction distribution
system.membus.trans_dist::ReadExReq                93                       # Transaction distribution
system.membus.trans_dist::ReadExResp               93                       # Transaction distribution
system.membus.trans_dist::ReadSharedReq          3522                       # Transaction distribution
system.membus.pkt_count_system.l2cache.mem_side::system.mem_ctrl.port         7230                       # Packet count per connected master and slave (bytes)
system.membus.pkt_count_system.l2cache.mem_side::total         7230                       # Packet count per connected master and slave (bytes)
system.membus.pkt_count::total                   7230                       # Packet count per connected master and slave (bytes)
system.membus.pkt_size_system.l2cache.mem_side::system.mem_ctrl.port       231360                       # Cumulative packet size per connected master and slave (bytes)
system.membus.pkt_size_system.l2cache.mem_side::total       231360                       # Cumulative packet size per connected master and slave (bytes)
system.membus.pkt_size::total                  231360                       # Cumulative packet size per connected master and slave (bytes)
system.membus.snoops                                0                       # Total snoops (count)
system.membus.snoopTraffic                          0                       # Total snoop traffic (bytes)
system.membus.snoop_fanout::samples              3615                       # Request fanout histogram
system.membus.snoop_fanout::mean                    0                       # Request fanout histogram
system.membus.snoop_fanout::stdev                   0                       # Request fanout histogram
system.membus.snoop_fanout::underflows              0      0.00%      0.00% # Request fanout histogram
system.membus.snoop_fanout::0                    3615    100.00%    100.00% # Request fanout histogram
system.membus.snoop_fanout::1                       0      0.00%    100.00% # Request fanout histogram
system.membus.snoop_fanout::overflows               0      0.00%    100.00% # Request fanout histogram
system.membus.snoop_fanout::min_value               0                       # Request fanout histogram
system.membus.snoop_fanout::max_value               0                       # Request fanout histogram
system.membus.snoop_fanout::total                3615                       # Request fanout histogram
system.membus.reqLayer2.occupancy             3615000                       # Layer occupancy (ticks)
system.membus.reqLayer2.utilization               0.0                       # Layer utilization (%)
system.membus.respLayer0.occupancy           18076500                       # Layer occupancy (ticks)
system.membus.respLayer0.utilization              0.1                       # Layer utilization (%)
system.l2bus.pwrStateResidencyTicks::UNDEFINED  31371862000                       # Cumulative time (in ticks) in various power states
system.l2bus.trans_dist::ReadResp               10898                       # Transaction distribution
system.l2bus.trans_dist::WritebackDirty           801                       # Transaction distribution
system.l2bus.trans_dist::CleanEvict              7763                       # Transaction distribution
system.l2bus.trans_dist::ReadExReq                 93                       # Transaction distribution
system.l2bus.trans_dist::ReadExResp                93                       # Transaction distribution
system.l2bus.trans_dist::ReadSharedReq          10899                       # Transaction distribution
system.l2bus.pkt_count_system.cpu.icache.mem_side::system.l2cache.cpu_side          759                       # Packet count per connected master and slave (bytes)
system.l2bus.pkt_count_system.cpu.dcache.mem_side::system.l2cache.cpu_side        29788                       # Packet count per connected master and slave (bytes)
system.l2bus.pkt_count::total                   30547                       # Packet count per connected master and slave (bytes)
system.l2bus.pkt_size_system.cpu.icache.mem_side::system.l2cache.cpu_side        24256                       # Cumulative packet size per connected master and slave (bytes)
system.l2bus.pkt_size_system.cpu.dcache.mem_side::system.l2cache.cpu_side       730432                       # Cumulative packet size per connected master and slave (bytes)
system.l2bus.pkt_size::total                   754688                       # Cumulative packet size per connected master and slave (bytes)
system.l2bus.snoops                                 0                       # Total snoops (count)
system.l2bus.snoopTraffic                           0                       # Total snoop traffic (bytes)
system.l2bus.snoop_fanout::samples              10992                       # Request fanout histogram
system.l2bus.snoop_fanout::mean              0.000091                       # Request fanout histogram
system.l2bus.snoop_fanout::stdev             0.009538                       # Request fanout histogram
system.l2bus.snoop_fanout::underflows               0      0.00%      0.00% # Request fanout histogram
system.l2bus.snoop_fanout::0                    10991     99.99%     99.99% # Request fanout histogram
system.l2bus.snoop_fanout::1                        1      0.01%    100.00% # Request fanout histogram
system.l2bus.snoop_fanout::2                        0      0.00%    100.00% # Request fanout histogram
system.l2bus.snoop_fanout::overflows                0      0.00%    100.00% # Request fanout histogram
system.l2bus.snoop_fanout::min_value                0                       # Request fanout histogram
system.l2bus.snoop_fanout::max_value                1                       # Request fanout histogram
system.l2bus.snoop_fanout::total                10992                       # Request fanout histogram
system.l2bus.respLayer1.occupancy            31836000                       # Layer occupancy (ticks)
system.l2bus.respLayer1.utilization               0.1                       # Layer utilization (%)
system.l2bus.reqLayer0.occupancy             21158000                       # Layer occupancy (ticks)
system.l2bus.reqLayer0.utilization                0.1                       # Layer utilization (%)
system.l2bus.respLayer0.occupancy             1137000                       # Layer occupancy (ticks)
system.l2bus.respLayer0.utilization               0.0                       # Layer utilization (%)
system.clk_domain.clock                          1000                       # Clock period in ticks
system.clk_domain.voltage_domain.voltage            1                       # Voltage in Volts
system.cpu.pwrStateResidencyTicks::ON     31371862000                       # Cumulative time (in ticks) in various power states
system.cpu.icache.pwrStateResidencyTicks::UNDEFINED  31371862000                       # Cumulative time (in ticks) in various power states
system.cpu.icache.demand_hits::.cpu.inst      2131793                       # number of demand (read+write) hits
system.cpu.icache.demand_hits::total          2131793                       # number of demand (read+write) hits
system.cpu.icache.overall_hits::.cpu.inst      2131793                       # number of overall hits
system.cpu.icache.overall_hits::total         2131793                       # number of overall hits
system.cpu.icache.demand_misses::.cpu.inst          380                       # number of demand (read+write) misses
system.cpu.icache.demand_misses::total            380                       # number of demand (read+write) misses
system.cpu.icache.overall_misses::.cpu.inst          380                       # number of overall misses
system.cpu.icache.overall_misses::total           380                       # number of overall misses
system.cpu.icache.demand_miss_latency::.cpu.inst     42210000                       # number of demand (read+write) miss cycles
system.cpu.icache.demand_miss_latency::total     42210000                       # number of demand (read+write) miss cycles
system.cpu.icache.overall_miss_latency::.cpu.inst     42210000                       # number of overall miss cycles
system.cpu.icache.overall_miss_latency::total     42210000                       # number of overall miss cycles
system.cpu.icache.demand_accesses::.cpu.inst      2132173                       # number of demand (read+write) accesses
system.cpu.icache.demand_accesses::total      2132173                       # number of demand (read+write) accesses
system.cpu.icache.overall_accesses::.cpu.inst      2132173                       # number of overall (read+write) accesses
system.cpu.icache.overall_accesses::total      2132173                       # number of overall (read+write) accesses
system.cpu.icache.demand_miss_rate::.cpu.inst     0.000178                       # miss rate for demand accesses
system.cpu.icache.demand_miss_rate::total     0.000178                       # miss rate for demand accesses
system.cpu.icache.overall_miss_rate::.cpu.inst     0.000178                       # miss rate for overall accesses
system.cpu.icache.overall_miss_rate::total     0.000178                       # miss rate for overall accesses
system.cpu.icache.demand_avg_miss_latency::.cpu.inst 111078.947368                       # average overall miss latency
system.cpu.icache.demand_avg_miss_latency::total 111078.947368                       # average overall miss latency
system.cpu.icache.overall_avg_miss_latency::.cpu.inst 111078.947368                       # average overall miss latency
system.cpu.icache.overall_avg_miss_latency::total 111078.947368                       # average overall miss latency
system.cpu.icache.blocked_cycles::no_mshrs            0                       # number of cycles access was blocked
system.cpu.icache.blocked_cycles::no_targets            0                       # number of cycles access was blocked
system.cpu.icache.blocked::no_mshrs                 0                       # number of cycles access was blocked
system.cpu.icache.blocked::no_targets               0                       # number of cycles access was blocked
system.cpu.icache.avg_blocked_cycles::no_mshrs          nan                       # average number of cycles each access was blocked
system.cpu.icache.avg_blocked_cycles::no_targets          nan                       # average number of cycles each access was blocked
system.cpu.icache.demand_mshr_misses::.cpu.inst          380                       # number of demand (read+write) MSHR misses
system.cpu.icache.demand_mshr_misses::total          380                       # number of demand (read+write) MSHR misses
system.cpu.icache.overall_mshr_misses::.cpu.inst          380                       # number of overall MSHR misses
system.cpu.icache.overall_mshr_misses::total          380                       # number of overall MSHR misses
system.cpu.icache.demand_mshr_miss_latency::.cpu.inst     41452000                       # number of demand (read+write) MSHR miss cycles
system.cpu.icache.demand_mshr_miss_latency::total     41452000                       # number of demand (read+write) MSHR miss cycles
system.cpu.icache.overall_mshr_miss_latency::.cpu.inst     41452000                       # number of overall MSHR miss cycles
system.cpu.icache.overall_mshr_miss_latency::total     41452000                       # number of overall MSHR miss cycles
system.cpu.icache.demand_mshr_miss_rate::.cpu.inst     0.000178                       # mshr miss rate for demand accesses
system.cpu.icache.demand_mshr_miss_rate::total     0.000178                       # mshr miss rate for demand accesses
system.cpu.icache.overall_mshr_miss_rate::.cpu.inst     0.000178                       # mshr miss rate for overall accesses
system.cpu.icache.overall_mshr_miss_rate::total     0.000178                       # mshr miss rate for overall accesses
system.cpu.icache.demand_avg_mshr_miss_latency::.cpu.inst 109084.210526                       # average overall mshr miss latency
system.cpu.icache.demand_avg_mshr_miss_latency::total 109084.210526                       # average overall mshr miss latency
system.cpu.icache.overall_avg_mshr_miss_latency::.cpu.inst 109084.210526                       # average overall mshr miss latency
system.cpu.icache.overall_avg_mshr_miss_latency::total 109084.210526                       # average overall mshr miss latency
system.cpu.icache.replacements                      0                       # number of replacements
system.cpu.icache.ReadReq_hits::.cpu.inst      2131793                       # number of ReadReq hits
system.cpu.icache.ReadReq_hits::total         2131793                       # number of ReadReq hits
system.cpu.icache.ReadReq_misses::.cpu.inst          380                       # number of ReadReq misses
system.cpu.icache.ReadReq_misses::total           380                       # number of ReadReq misses
system.cpu.icache.ReadReq_miss_latency::.cpu.inst     42210000                       # number of ReadReq miss cycles
system.cpu.icache.ReadReq_miss_latency::total     42210000                       # number of ReadReq miss cycles
system.cpu.icache.ReadReq_accesses::.cpu.inst      2132173                       # number of ReadReq accesses(hits+misses)
system.cpu.icache.ReadReq_accesses::total      2132173                       # number of ReadReq accesses(hits+misses)
system.cpu.icache.ReadReq_miss_rate::.cpu.inst     0.000178                       # miss rate for ReadReq accesses
system.cpu.icache.ReadReq_miss_rate::total     0.000178                       # miss rate for ReadReq accesses
system.cpu.icache.ReadReq_avg_miss_latency::.cpu.inst 111078.947368                       # average ReadReq miss latency
system.cpu.icache.ReadReq_avg_miss_latency::total 111078.947368                       # average ReadReq miss latency
system.cpu.icache.ReadReq_mshr_misses::.cpu.inst          380                       # number of ReadReq MSHR misses
system.cpu.icache.ReadReq_mshr_misses::total          380                       # number of ReadReq MSHR misses
system.cpu.icache.ReadReq_mshr_miss_latency::.cpu.inst     41452000                       # number of ReadReq MSHR miss cycles
system.cpu.icache.ReadReq_mshr_miss_latency::total     41452000                       # number of ReadReq MSHR miss cycles
system.cpu.icache.ReadReq_mshr_miss_rate::.cpu.inst     0.000178                       # mshr miss rate for ReadReq accesses
system.cpu.icache.ReadReq_mshr_miss_rate::total     0.000178                       # mshr miss rate for ReadReq accesses
system.cpu.icache.ReadReq_avg_mshr_miss_latency::.cpu.inst 109084.210526                       # average ReadReq mshr miss latency
system.cpu.icache.ReadReq_avg_mshr_miss_latency::total 109084.210526                       # average ReadReq mshr miss latency
system.cpu.icache.tags.pwrStateResidencyTicks::UNDEFINED  31371862000                       # Cumulative time (in ticks) in various power states
system.cpu.icache.tags.tagsinuse           352.680245                       # Cycle average of tags in use
system.cpu.icache.tags.total_refs             2132172                       # Total number of references to valid blocks.
system.cpu.icache.tags.sampled_refs               379                       # Sample count of references to valid blocks.
system.cpu.icache.tags.avg_refs           5625.783641                       # Average number of references to valid blocks.
system.cpu.icache.tags.warmup_cycle            113000                       # Cycle when the warmup percentage was hit.
system.cpu.icache.tags.occ_blocks::.cpu.inst   352.680245                       # Average occupied blocks per requestor
system.cpu.icache.tags.occ_percent::.cpu.inst     0.172207                       # Average percentage of cache occupancy
system.cpu.icache.tags.occ_percent::total     0.172207                       # Average percentage of cache occupancy
system.cpu.icache.tags.occ_task_id_blocks::1024          379                       # Occupied blocks per task id
system.cpu.icache.tags.age_task_id_blocks_1024::0           26                       # Occupied blocks per task id
system.cpu.icache.tags.age_task_id_blocks_1024::4          353                       # Occupied blocks per task id
system.cpu.icache.tags.occ_task_id_percent::1024     0.185059                       # Percentage of cache occupancy per task id
system.cpu.icache.tags.tag_accesses           4264725                       # Number of tag accesses
system.cpu.icache.tags.data_accesses          4264725                       # Number of data accesses
system.cpu.dtb.walker.pwrStateResidencyTicks::UNDEFINED  31371862000                       # Cumulative time (in ticks) in various power states
system.cpu.interrupts.clk_domain.clock          16000                       # Clock period in ticks
system.cpu.dcache.pwrStateResidencyTicks::UNDEFINED  31371862000                       # Cumulative time (in ticks) in various power states
system.cpu.dcache.demand_hits::.cpu.data      7135787                       # number of demand (read+write) hits
system.cpu.dcache.demand_hits::total          7135787                       # number of demand (read+write) hits
system.cpu.dcache.overall_hits::.cpu.data      7135787                       # number of overall hits
system.cpu.dcache.overall_hits::total         7135787                       # number of overall hits
system.cpu.dcache.demand_misses::.cpu.data        10684                       # number of demand (read+write) misses
system.cpu.dcache.demand_misses::total          10684                       # number of demand (read+write) misses
system.cpu.dcache.overall_misses::.cpu.data        10684                       # number of overall misses
system.cpu.dcache.overall_misses::total         10684                       # number of overall misses
system.cpu.dcache.demand_miss_latency::.cpu.data    615623000                       # number of demand (read+write) miss cycles
system.cpu.dcache.demand_miss_latency::total    615623000                       # number of demand (read+write) miss cycles
system.cpu.dcache.overall_miss_latency::.cpu.data    615623000                       # number of overall miss cycles
system.cpu.dcache.overall_miss_latency::total    615623000                       # number of overall miss cycles
system.cpu.dcache.demand_accesses::.cpu.data      7146471                       # number of demand (read+write) accesses
system.cpu.dcache.demand_accesses::total      7146471                       # number of demand (read+write) accesses
system.cpu.dcache.overall_accesses::.cpu.data      7146471                       # number of overall (read+write) accesses
system.cpu.dcache.overall_accesses::total      7146471                       # number of overall (read+write) accesses
system.cpu.dcache.demand_miss_rate::.cpu.data     0.001495                       # miss rate for demand accesses
system.cpu.dcache.demand_miss_rate::total     0.001495                       # miss rate for demand accesses
system.cpu.dcache.overall_miss_rate::.cpu.data     0.001495                       # miss rate for overall accesses
system.cpu.dcache.overall_miss_rate::total     0.001495                       # miss rate for overall accesses
system.cpu.dcache.demand_avg_miss_latency::.cpu.data 57621.022089                       # average overall miss latency
system.cpu.dcache.demand_avg_miss_latency::total 57621.022089                       # average overall miss latency
system.cpu.dcache.overall_avg_miss_latency::.cpu.data 57621.022089                       # average overall miss latency
system.cpu.dcache.overall_avg_miss_latency::total 57621.022089                       # average overall miss latency
system.cpu.dcache.blocked_cycles::no_mshrs            0                       # number of cycles access was blocked
system.cpu.dcache.blocked_cycles::no_targets            0                       # number of cycles access was blocked
system.cpu.dcache.blocked::no_mshrs                 0                       # number of cycles access was blocked
system.cpu.dcache.blocked::no_targets               0                       # number of cycles access was blocked
system.cpu.dcache.avg_blocked_cycles::no_mshrs          nan                       # average number of cycles each access was blocked
system.cpu.dcache.avg_blocked_cycles::no_targets          nan                       # average number of cycles each access was blocked
system.cpu.dcache.writebacks::.writebacks          801                       # number of writebacks
system.cpu.dcache.writebacks::total               801                       # number of writebacks
system.cpu.dcache.demand_mshr_hits::.cpu.data           72                       # number of demand (read+write) MSHR hits
system.cpu.dcache.demand_mshr_hits::total           72                       # number of demand (read+write) MSHR hits
system.cpu.dcache.overall_mshr_hits::.cpu.data           72                       # number of overall MSHR hits
system.cpu.dcache.overall_mshr_hits::total           72                       # number of overall MSHR hits
system.cpu.dcache.demand_mshr_misses::.cpu.data        10612                       # number of demand (read+write) MSHR misses
system.cpu.dcache.demand_mshr_misses::total        10612                       # number of demand (read+write) MSHR misses
system.cpu.dcache.overall_mshr_misses::.cpu.data        10612                       # number of overall MSHR misses
system.cpu.dcache.overall_mshr_misses::total        10612                       # number of overall MSHR misses
system.cpu.dcache.demand_mshr_miss_latency::.cpu.data    587402000                       # number of demand (read+write) MSHR miss cycles
system.cpu.dcache.demand_mshr_miss_latency::total    587402000                       # number of demand (read+write) MSHR miss cycles
system.cpu.dcache.overall_mshr_miss_latency::.cpu.data    587402000                       # number of overall MSHR miss cycles
system.cpu.dcache.overall_mshr_miss_latency::total    587402000                       # number of overall MSHR miss cycles
system.cpu.dcache.demand_mshr_miss_rate::.cpu.data     0.001485                       # mshr miss rate for demand accesses
system.cpu.dcache.demand_mshr_miss_rate::total     0.001485                       # mshr miss rate for demand accesses
system.cpu.dcache.overall_mshr_miss_rate::.cpu.data     0.001485                       # mshr miss rate for overall accesses
system.cpu.dcache.overall_mshr_miss_rate::total     0.001485                       # mshr miss rate for overall accesses
system.cpu.dcache.demand_avg_mshr_miss_latency::.cpu.data 55352.619676                       # average overall mshr miss latency
system.cpu.dcache.demand_avg_mshr_miss_latency::total 55352.619676                       # average overall mshr miss latency
system.cpu.dcache.overall_avg_mshr_miss_latency::.cpu.data 55352.619676                       # average overall mshr miss latency
system.cpu.dcache.overall_avg_mshr_miss_latency::total 55352.619676                       # average overall mshr miss latency
system.cpu.dcache.replacements                   8564                       # number of replacements
system.cpu.dcache.ReadReq_hits::.cpu.data      5037444                       # number of ReadReq hits
system.cpu.dcache.ReadReq_hits::total         5037444                       # number of ReadReq hits
system.cpu.dcache.ReadReq_misses::.cpu.data        10530                       # number of ReadReq misses
system.cpu.dcache.ReadReq_misses::total         10530                       # number of ReadReq misses
system.cpu.dcache.ReadReq_miss_latency::.cpu.data    599390000                       # number of ReadReq miss cycles
system.cpu.dcache.ReadReq_miss_latency::total    599390000                       # number of ReadReq miss cycles
system.cpu.dcache.ReadReq_accesses::.cpu.data      5047974                       # number of ReadReq accesses(hits+misses)
system.cpu.dcache.ReadReq_accesses::total      5047974                       # number of ReadReq accesses(hits+misses)
system.cpu.dcache.ReadReq_miss_rate::.cpu.data     0.002086                       # miss rate for ReadReq accesses
system.cpu.dcache.ReadReq_miss_rate::total     0.002086                       # miss rate for ReadReq accesses
system.cpu.dcache.ReadReq_avg_miss_latency::.cpu.data 56922.127255                       # average ReadReq miss latency
system.cpu.dcache.ReadReq_avg_miss_latency::total 56922.127255                       # average ReadReq miss latency
system.cpu.dcache.ReadReq_mshr_hits::.cpu.data           11                       # number of ReadReq MSHR hits
system.cpu.dcache.ReadReq_mshr_hits::total           11                       # number of ReadReq MSHR hits
system.cpu.dcache.ReadReq_mshr_misses::.cpu.data        10519                       # number of ReadReq MSHR misses
system.cpu.dcache.ReadReq_mshr_misses::total        10519                       # number of ReadReq MSHR misses
system.cpu.dcache.ReadReq_mshr_miss_latency::.cpu.data    577233000                       # number of ReadReq MSHR miss cycles
system.cpu.dcache.ReadReq_mshr_miss_latency::total    577233000                       # number of ReadReq MSHR miss cycles
system.cpu.dcache.ReadReq_mshr_miss_rate::.cpu.data     0.002084                       # mshr miss rate for ReadReq accesses
system.cpu.dcache.ReadReq_mshr_miss_rate::total     0.002084                       # mshr miss rate for ReadReq accesses
system.cpu.dcache.ReadReq_avg_mshr_miss_latency::.cpu.data 54875.273315                       # average ReadReq mshr miss latency
system.cpu.dcache.ReadReq_avg_mshr_miss_latency::total 54875.273315                       # average ReadReq mshr miss latency
system.cpu.dcache.WriteReq_hits::.cpu.data      2098343                       # number of WriteReq hits
system.cpu.dcache.WriteReq_hits::total        2098343                       # number of WriteReq hits
system.cpu.dcache.WriteReq_misses::.cpu.data          154                       # number of WriteReq misses
system.cpu.dcache.WriteReq_misses::total          154                       # number of WriteReq misses
system.cpu.dcache.WriteReq_miss_latency::.cpu.data     16233000                       # number of WriteReq miss cycles
system.cpu.dcache.WriteReq_miss_latency::total     16233000                       # number of WriteReq miss cycles
system.cpu.dcache.WriteReq_accesses::.cpu.data      2098497                       # number of WriteReq accesses(hits+misses)
system.cpu.dcache.WriteReq_accesses::total      2098497                       # number of WriteReq accesses(hits+misses)
system.cpu.dcache.WriteReq_miss_rate::.cpu.data     0.000073                       # miss rate for WriteReq accesses
system.cpu.dcache.WriteReq_miss_rate::total     0.000073                       # miss rate for WriteReq accesses
system.cpu.dcache.WriteReq_avg_miss_latency::.cpu.data 105409.090909                       # average WriteReq miss latency
system.cpu.dcache.WriteReq_avg_miss_latency::total 105409.090909                       # average WriteReq miss latency
system.cpu.dcache.WriteReq_mshr_hits::.cpu.data           61                       # number of WriteReq MSHR hits
system.cpu.dcache.WriteReq_mshr_hits::total           61                       # number of WriteReq MSHR hits
system.cpu.dcache.WriteReq_mshr_misses::.cpu.data           93                       # number of WriteReq MSHR misses
system.cpu.dcache.WriteReq_mshr_misses::total           93                       # number of WriteReq MSHR misses
system.cpu.dcache.WriteReq_mshr_miss_latency::.cpu.data     10169000                       # number of WriteReq MSHR miss cycles
system.cpu.dcache.WriteReq_mshr_miss_latency::total     10169000                       # number of WriteReq MSHR miss cycles
system.cpu.dcache.WriteReq_mshr_miss_rate::.cpu.data     0.000044                       # mshr miss rate for WriteReq accesses
system.cpu.dcache.WriteReq_mshr_miss_rate::total     0.000044                       # mshr miss rate for WriteReq accesses
system.cpu.dcache.WriteReq_avg_mshr_miss_latency::.cpu.data 109344.086022                       # average WriteReq mshr miss latency
system.cpu.dcache.WriteReq_avg_mshr_miss_latency::total 109344.086022                       # average WriteReq mshr miss latency
system.cpu.dcache.tags.pwrStateResidencyTicks::UNDEFINED  31371862000                       # Cumulative time (in ticks) in various power states
system.cpu.dcache.tags.tagsinuse          1672.313693                       # Cycle average of tags in use
system.cpu.dcache.tags.total_refs             7146399                       # Total number of references to valid blocks.
system.cpu.dcache.tags.sampled_refs             10612                       # Sample count of references to valid blocks.
system.cpu.dcache.tags.avg_refs            673.426216                       # Average number of references to valid blocks.
system.cpu.dcache.tags.warmup_cycle            233000                       # Cycle when the warmup percentage was hit.
system.cpu.dcache.tags.occ_blocks::.cpu.data  1672.313693                       # Average occupied blocks per requestor
system.cpu.dcache.tags.occ_percent::.cpu.data     0.816559                       # Average percentage of cache occupancy
system.cpu.dcache.tags.occ_percent::total     0.816559                       # Average percentage of cache occupancy
system.cpu.dcache.tags.occ_task_id_blocks::1024         2048                       # Occupied blocks per task id
system.cpu.dcache.tags.age_task_id_blocks_1024::0           36                       # Occupied blocks per task id
system.cpu.dcache.tags.age_task_id_blocks_1024::1           23                       # Occupied blocks per task id
system.cpu.dcache.tags.age_task_id_blocks_1024::2          179                       # Occupied blocks per task id
system.cpu.dcache.tags.age_task_id_blocks_1024::3          609                       # Occupied blocks per task id
system.cpu.dcache.tags.age_task_id_blocks_1024::4         1201                       # Occupied blocks per task id
system.cpu.dcache.tags.occ_task_id_percent::1024            1                       # Percentage of cache occupancy per task id
system.cpu.dcache.tags.tag_accesses          14303554                       # Number of tag accesses
system.cpu.dcache.tags.data_accesses         14303554                       # Number of data accesses
system.cpu.itb.walker.pwrStateResidencyTicks::UNDEFINED  31371862000                       # Cumulative time (in ticks) in various power states
system.l2cache.pwrStateResidencyTicks::UNDEFINED  31371862000                       # Cumulative time (in ticks) in various power states
system.l2cache.demand_hits::.cpu.inst               1                       # number of demand (read+write) hits
system.l2cache.demand_hits::.cpu.data            7375                       # number of demand (read+write) hits
system.l2cache.demand_hits::total                7376                       # number of demand (read+write) hits
system.l2cache.overall_hits::.cpu.inst              1                       # number of overall hits
system.l2cache.overall_hits::.cpu.data           7375                       # number of overall hits
system.l2cache.overall_hits::total               7376                       # number of overall hits
system.l2cache.demand_misses::.cpu.inst           379                       # number of demand (read+write) misses
system.l2cache.demand_misses::.cpu.data          3237                       # number of demand (read+write) misses
system.l2cache.demand_misses::total              3616                       # number of demand (read+write) misses
system.l2cache.overall_misses::.cpu.inst          379                       # number of overall misses
system.l2cache.overall_misses::.cpu.data         3237                       # number of overall misses
system.l2cache.overall_misses::total             3616                       # number of overall misses
system.l2cache.demand_miss_latency::.cpu.inst     40292000                       # number of demand (read+write) miss cycles
system.l2cache.demand_miss_latency::.cpu.data    381794000                       # number of demand (read+write) miss cycles
system.l2cache.demand_miss_latency::total    422086000                       # number of demand (read+write) miss cycles
system.l2cache.overall_miss_latency::.cpu.inst     40292000                       # number of overall miss cycles
system.l2cache.overall_miss_latency::.cpu.data    381794000                       # number of overall miss cycles
system.l2cache.overall_miss_latency::total    422086000                       # number of overall miss cycles
system.l2cache.demand_accesses::.cpu.inst          380                       # number of demand (read+write) accesses
system.l2cache.demand_accesses::.cpu.data        10612                       # number of demand (read+write) accesses
system.l2cache.demand_accesses::total           10992                       # number of demand (read+write) accesses
system.l2cache.overall_accesses::.cpu.inst          380                       # number of overall (read+write) accesses
system.l2cache.overall_accesses::.cpu.data        10612                       # number of overall (read+write) accesses
system.l2cache.overall_accesses::total          10992                       # number of overall (read+write) accesses
system.l2cache.demand_miss_rate::.cpu.inst     0.997368                       # miss rate for demand accesses
system.l2cache.demand_miss_rate::.cpu.data     0.305032                       # miss rate for demand accesses
system.l2cache.demand_miss_rate::total       0.328967                       # miss rate for demand accesses
system.l2cache.overall_miss_rate::.cpu.inst     0.997368                       # miss rate for overall accesses
system.l2cache.overall_miss_rate::.cpu.data     0.305032                       # miss rate for overall accesses
system.l2cache.overall_miss_rate::total      0.328967                       # miss rate for overall accesses
system.l2cache.demand_avg_miss_latency::.cpu.inst 106311.345646                       # average overall miss latency
system.l2cache.demand_avg_miss_latency::.cpu.data 117946.864381                       # average overall miss latency
system.l2cache.demand_avg_miss_latency::total 116727.323009                       # average overall miss latency
system.l2cache.overall_avg_miss_latency::.cpu.inst 106311.345646                       # average overall miss latency
system.l2cache.overall_avg_miss_latency::.cpu.data 117946.864381                       # average overall miss latency
system.l2cache.overall_avg_miss_latency::total 116727.323009                       # average overall miss latency
system.l2cache.blocked_cycles::no_mshrs             0                       # number of cycles access was blocked
system.l2cache.blocked_cycles::no_targets            0                       # number of cycles access was blocked
system.l2cache.blocked::no_mshrs                    0                       # number of cycles access was blocked
system.l2cache.blocked::no_targets                  0                       # number of cycles access was blocked
system.l2cache.avg_blocked_cycles::no_mshrs          nan                       # average number of cycles each access was blocked
system.l2cache.avg_blocked_cycles::no_targets          nan                       # average number of cycles each access was blocked
system.l2cache.demand_mshr_misses::.cpu.inst          379                       # number of demand (read+write) MSHR misses
system.l2cache.demand_mshr_misses::.cpu.data         3237                       # number of demand (read+write) MSHR misses
system.l2cache.demand_mshr_misses::total         3616                       # number of demand (read+write) MSHR misses
system.l2cache.overall_mshr_misses::.cpu.inst          379                       # number of overall MSHR misses
system.l2cache.overall_mshr_misses::.cpu.data         3237                       # number of overall MSHR misses
system.l2cache.overall_mshr_misses::total         3616                       # number of overall MSHR misses
system.l2cache.demand_mshr_miss_latency::.cpu.inst     32732000                       # number of demand (read+write) MSHR miss cycles
system.l2cache.demand_mshr_miss_latency::.cpu.data    317054000                       # number of demand (read+write) MSHR miss cycles
system.l2cache.demand_mshr_miss_latency::total    349786000                       # number of demand (read+write) MSHR miss cycles
system.l2cache.overall_mshr_miss_latency::.cpu.inst     32732000                       # number of overall MSHR miss cycles
system.l2cache.overall_mshr_miss_latency::.cpu.data    317054000                       # number of overall MSHR miss cycles
system.l2cache.overall_mshr_miss_latency::total    349786000                       # number of overall MSHR miss cycles
system.l2cache.demand_mshr_miss_rate::.cpu.inst     0.997368                       # mshr miss rate for demand accesses
system.l2cache.demand_mshr_miss_rate::.cpu.data     0.305032                       # mshr miss rate for demand accesses
system.l2cache.demand_mshr_miss_rate::total     0.328967                       # mshr miss rate for demand accesses
system.l2cache.overall_mshr_miss_rate::.cpu.inst     0.997368                       # mshr miss rate for overall accesses
system.l2cache.overall_mshr_miss_rate::.cpu.data     0.305032                       # mshr miss rate for overall accesses
system.l2cache.overall_mshr_miss_rate::total     0.328967                       # mshr miss rate for overall accesses
system.l2cache.demand_avg_mshr_miss_latency::.cpu.inst 86364.116095                       # average overall mshr miss latency
system.l2cache.demand_avg_mshr_miss_latency::.cpu.data 97946.864381                       # average overall mshr miss latency
system.l2cache.demand_avg_mshr_miss_latency::total 96732.853982                       # average overall mshr miss latency
system.l2cache.overall_avg_mshr_miss_latency::.cpu.inst 86364.116095                       # average overall mshr miss latency
system.l2cache.overall_avg_mshr_miss_latency::.cpu.data 97946.864381                       # average overall mshr miss latency
system.l2cache.overall_avg_mshr_miss_latency::total 96732.853982                       # average overall mshr miss latency
system.l2cache.replacements                         0                       # number of replacements
system.l2cache.WritebackDirty_hits::.writebacks          801                       # number of WritebackDirty hits
system.l2cache.WritebackDirty_hits::total          801                       # number of WritebackDirty hits
system.l2cache.WritebackDirty_accesses::.writebacks          801                       # number of WritebackDirty accesses(hits+misses)
system.l2cache.WritebackDirty_accesses::total          801                       # number of WritebackDirty accesses(hits+misses)
system.l2cache.ReadExReq_misses::.cpu.data           93                       # number of ReadExReq misses
system.l2cache.ReadExReq_misses::total             93                       # number of ReadExReq misses
system.l2cache.ReadExReq_miss_latency::.cpu.data      9888000                       # number of ReadExReq miss cycles
system.l2cache.ReadExReq_miss_latency::total      9888000                       # number of ReadExReq miss cycles
system.l2cache.ReadExReq_accesses::.cpu.data           93                       # number of ReadExReq accesses(hits+misses)
system.l2cache.ReadExReq_accesses::total           93                       # number of ReadExReq accesses(hits+misses)
system.l2cache.ReadExReq_miss_rate::.cpu.data            1                       # miss rate for ReadExReq accesses
system.l2cache.ReadExReq_miss_rate::total            1                       # miss rate for ReadExReq accesses
system.l2cache.ReadExReq_avg_miss_latency::.cpu.data 106322.580645                       # average ReadExReq miss latency
system.l2cache.ReadExReq_avg_miss_latency::total 106322.580645                       # average ReadExReq miss latency
system.l2cache.ReadExReq_mshr_misses::.cpu.data           93                       # number of ReadExReq MSHR misses
system.l2cache.ReadExReq_mshr_misses::total           93                       # number of ReadExReq MSHR misses
system.l2cache.ReadExReq_mshr_miss_latency::.cpu.data      8028000                       # number of ReadExReq MSHR miss cycles
system.l2cache.ReadExReq_mshr_miss_latency::total      8028000                       # number of ReadExReq MSHR miss cycles
system.l2cache.ReadExReq_mshr_miss_rate::.cpu.data            1                       # mshr miss rate for ReadExReq accesses
system.l2cache.ReadExReq_mshr_miss_rate::total            1                       # mshr miss rate for ReadExReq accesses
system.l2cache.ReadExReq_avg_mshr_miss_latency::.cpu.data 86322.580645                       # average ReadExReq mshr miss latency
system.l2cache.ReadExReq_avg_mshr_miss_latency::total 86322.580645                       # average ReadExReq mshr miss latency
system.l2cache.ReadSharedReq_hits::.cpu.inst            1                       # number of ReadSharedReq hits
system.l2cache.ReadSharedReq_hits::.cpu.data         7375                       # number of ReadSharedReq hits
system.l2cache.ReadSharedReq_hits::total         7376                       # number of ReadSharedReq hits
system.l2cache.ReadSharedReq_misses::.cpu.inst          379                       # number of ReadSharedReq misses
system.l2cache.ReadSharedReq_misses::.cpu.data         3144                       # number of ReadSharedReq misses
system.l2cache.ReadSharedReq_misses::total         3523                       # number of ReadSharedReq misses
system.l2cache.ReadSharedReq_miss_latency::.cpu.inst     40292000                       # number of ReadSharedReq miss cycles
system.l2cache.ReadSharedReq_miss_latency::.cpu.data    371906000                       # number of ReadSharedReq miss cycles
system.l2cache.ReadSharedReq_miss_latency::total    412198000                       # number of ReadSharedReq miss cycles
system.l2cache.ReadSharedReq_accesses::.cpu.inst          380                       # number of ReadSharedReq accesses(hits+misses)
system.l2cache.ReadSharedReq_accesses::.cpu.data        10519                       # number of ReadSharedReq accesses(hits+misses)
system.l2cache.ReadSharedReq_accesses::total        10899                       # number of ReadSharedReq accesses(hits+misses)
system.l2cache.ReadSharedReq_miss_rate::.cpu.inst     0.997368                       # miss rate for ReadSharedReq accesses
system.l2cache.ReadSharedReq_miss_rate::.cpu.data     0.298888                       # miss rate for ReadSharedReq accesses
system.l2cache.ReadSharedReq_miss_rate::total     0.323241                       # miss rate for ReadSharedReq accesses
system.l2cache.ReadSharedReq_avg_miss_latency::.cpu.inst 106311.345646                       # average ReadSharedReq miss latency
system.l2cache.ReadSharedReq_avg_miss_latency::.cpu.data 118290.712468                       # average ReadSharedReq miss latency
system.l2cache.ReadSharedReq_avg_miss_latency::total 117001.986943                       # average ReadSharedReq miss latency
system.l2cache.ReadSharedReq_mshr_misses::.cpu.inst          379                       # number of ReadSharedReq MSHR misses
system.l2cache.ReadSharedReq_mshr_misses::.cpu.data         3144                       # number of ReadSharedReq MSHR misses
system.l2cache.ReadSharedReq_mshr_misses::total         3523                       # number of ReadSharedReq MSHR misses
system.l2cache.ReadSharedReq_mshr_miss_latency::.cpu.inst     32732000                       # number of ReadSharedReq MSHR miss cycles
system.l2cache.ReadSharedReq_mshr_miss_latency::.cpu.data    309026000                       # number of ReadSharedReq MSHR miss cycles
system.l2cache.ReadSharedReq_mshr_miss_latency::total    341758000                       # number of ReadSharedReq MSHR miss cycles
system.l2cache.ReadSharedReq_mshr_miss_rate::.cpu.inst     0.997368                       # mshr miss rate for ReadSharedReq accesses
system.l2cache.ReadSharedReq_mshr_miss_rate::.cpu.data     0.298888                       # mshr miss rate for ReadSharedReq accesses
system.l2cache.ReadSharedReq_mshr_miss_rate::total     0.323241                       # mshr miss rate for ReadSharedReq accesses
system.l2cache.ReadSharedReq_avg_mshr_miss_latency::.cpu.inst 86364.116095                       # average ReadSharedReq mshr miss latency
system.l2cache.ReadSharedReq_avg_mshr_miss_latency::.cpu.data 98290.712468                       # average ReadSharedReq mshr miss latency
system.l2cache.ReadSharedReq_avg_mshr_miss_latency::total 97007.663923                       # average ReadSharedReq mshr miss latency
system.l2cache.tags.pwrStateResidencyTicks::UNDEFINED  31371862000                       # Cumulative time (in ticks) in various power states
system.l2cache.tags.tagsinuse             2715.149080                       # Cycle average of tags in use
system.l2cache.tags.total_refs                  19554                       # Total number of references to valid blocks.
system.l2cache.tags.sampled_refs                 3615                       # Sample count of references to valid blocks.
system.l2cache.tags.avg_refs                 5.409129                       # Average number of references to valid blocks.
system.l2cache.tags.warmup_cycle                92000                       # Cycle when the warmup percentage was hit.
system.l2cache.tags.occ_blocks::.cpu.inst   351.682191                       # Average occupied blocks per requestor
system.l2cache.tags.occ_blocks::.cpu.data  2363.466889                       # Average occupied blocks per requestor
system.l2cache.tags.occ_percent::.cpu.inst     0.021465                       # Average percentage of cache occupancy
system.l2cache.tags.occ_percent::.cpu.data     0.144255                       # Average percentage of cache occupancy
system.l2cache.tags.occ_percent::total       0.165720                       # Average percentage of cache occupancy
system.l2cache.tags.occ_task_id_blocks::1024         3615                       # Occupied blocks per task id
system.l2cache.tags.age_task_id_blocks_1024::0           42                       # Occupied blocks per task id
system.l2cache.tags.age_task_id_blocks_1024::3          512                       # Occupied blocks per task id
system.l2cache.tags.age_task_id_blocks_1024::4         3061                       # Occupied blocks per task id
system.l2cache.tags.occ_task_id_percent::1024     0.220642                       # Percentage of cache occupancy per task id
system.l2cache.tags.tag_accesses               160055                       # Number of tag accesses
system.l2cache.tags.data_accesses              160055                       # Number of data accesses
system.mem_ctrl.pwrStateResidencyTicks::UNDEFINED  31371862000                       # Cumulative time (in ticks) in various power states
system.mem_ctrl.bytes_read::.cpu.inst           24192                       # Number of bytes read from this memory
system.mem_ctrl.bytes_read::.cpu.data          207168                       # Number of bytes read from this memory
system.mem_ctrl.bytes_read::total              231360                       # Number of bytes read from this memory
system.mem_ctrl.bytes_inst_read::.cpu.inst        24192                       # Number of instructions bytes read from this memory
system.mem_ctrl.bytes_inst_read::total          24192                       # Number of instructions bytes read from this memory
system.mem_ctrl.num_reads::.cpu.inst              378                       # Number of read requests responded to by this memory
system.mem_ctrl.num_reads::.cpu.data             3237                       # Number of read requests responded to by this memory
system.mem_ctrl.num_reads::total                 3615                       # Number of read requests responded to by this memory
system.mem_ctrl.bw_read::.cpu.inst             771137                       # Total read bandwidth from this memory (bytes/s)
system.mem_ctrl.bw_read::.cpu.data            6603625                       # Total read bandwidth from this memory (bytes/s)
system.mem_ctrl.bw_read::total                7374761                       # Total read bandwidth from this memory (bytes/s)
system.mem_ctrl.bw_inst_read::.cpu.inst        771137                       # Instruction read bandwidth from this memory (bytes/s)
system.mem_ctrl.bw_inst_read::total            771137                       # Instruction read bandwidth from this memory (bytes/s)
system.mem_ctrl.bw_total::.cpu.inst            771137                       # Total bandwidth to/from this memory (bytes/s)
system.mem_ctrl.bw_total::.cpu.data           6603625                       # Total bandwidth to/from this memory (bytes/s)
system.mem_ctrl.bw_total::total               7374761                       # Total bandwidth to/from this memory (bytes/s)
system.mem_ctrl.avgPriority_.cpu.inst::samples       756.00                       # Average QoS priority value for accepted requests
system.mem_ctrl.avgPriority_.cpu.data::samples      6474.00                       # Average QoS priority value for accepted requests
system.mem_ctrl.priorityMinLatency       0.000000019000                       # per QoS priority minimum request to response latency (s)
system.mem_ctrl.priorityMaxLatency       0.000000680000                       # per QoS priority maximum request to response latency (s)
system.mem_ctrl.numReadWriteTurnArounds             0                       # Number of turnarounds from READ to WRITE
system.mem_ctrl.numWriteReadTurnArounds             0                       # Number of turnarounds from WRITE to READ
system.mem_ctrl.numStayReadState                18914                       # Number of times bus staying in READ state
system.mem_ctrl.numStayWriteState                   0                       # Number of times bus staying in WRITE state
system.mem_ctrl.readReqs                         3615                       # Number of read requests accepted
system.mem_ctrl.writeReqs                           0                       # Number of write requests accepted
system.mem_ctrl.readBursts                       7230                       # Number of DRAM read bursts, including those serviced by the write queue
system.mem_ctrl.writeBursts                         0                       # Number of DRAM write bursts, including those merged in the write queue
system.mem_ctrl.servicedByWrQ                       0                       # Number of DRAM read bursts serviced by the write queue
system.mem_ctrl.mergedWrBursts                      0                       # Number of DRAM write bursts merged with an existing one
system.mem_ctrl.neitherReadNorWriteReqs             0                       # Number of requests that are neither read nor write
system.mem_ctrl.perBankRdBursts::0                458                       # Per bank write bursts
system.mem_ctrl.perBankRdBursts::1                442                       # Per bank write bursts
system.mem_ctrl.perBankRdBursts::2                420                       # Per bank write bursts
system.mem_ctrl.perBankRdBursts::3                450                       # Per bank write bursts
system.mem_ctrl.perBankRdBursts::4                468                       # Per bank write bursts
system.mem_ctrl.perBankRdBursts::5                468                       # Per bank write bursts
system.mem_ctrl.perBankRdBursts::6                488                       # Per bank write bursts
system.mem_ctrl.perBankRdBursts::7                500                       # Per bank write bursts
system.mem_ctrl.perBankRdBursts::8                486                       # Per bank write bursts
system.mem_ctrl.perBankRdBursts::9                482                       # Per bank write bursts
system.mem_ctrl.perBankRdBursts::10               456                       # Per bank write bursts
system.mem_ctrl.perBankRdBursts::11               448                       # Per bank write bursts
system.mem_ctrl.perBankRdBursts::12               420                       # Per bank write bursts
system.mem_ctrl.perBankRdBursts::13               420                       # Per bank write bursts
system.mem_ctrl.perBankRdBursts::14               418                       # Per bank write bursts
system.mem_ctrl.perBankRdBursts::15               406                       # Per bank write bursts
system.mem_ctrl.perBankWrBursts::0                  0                       # Per bank write bursts
system.mem_ctrl.perBankWrBursts::1                  0                       # Per bank write bursts
system.mem_ctrl.perBankWrBursts::2                  0                       # Per bank write bursts
system.mem_ctrl.perBankWrBursts::3                  0                       # Per bank write bursts
system.mem_ctrl.perBankWrBursts::4                  0                       # Per bank write bursts
system.mem_ctrl.perBankWrBursts::5                  0                       # Per bank write bursts
system.mem_ctrl.perBankWrBursts::6                  0                       # Per bank write bursts
system.mem_ctrl.perBankWrBursts::7                  0                       # Per bank write bursts
system.mem_ctrl.perBankWrBursts::8                  0                       # Per bank write bursts
system.mem_ctrl.perBankWrBursts::9                  0                       # Per bank write bursts
system.mem_ctrl.perBankWrBursts::10                 0                       # Per bank write bursts
system.mem_ctrl.perBankWrBursts::11                 0                       # Per bank write bursts
system.mem_ctrl.perBankWrBursts::12                 0                       # Per bank write bursts
system.mem_ctrl.perBankWrBursts::13                 0                       # Per bank write bursts
system.mem_ctrl.perBankWrBursts::14                 0                       # Per bank write bursts
system.mem_ctrl.perBankWrBursts::15                 0                       # Per bank write bursts
system.mem_ctrl.avgRdQLen                        2.00                       # Average read queue length when enqueuing
system.mem_ctrl.avgWrQLen                        0.00                       # Average write queue length when enqueuing
system.mem_ctrl.totQLat                     178401000                       # Total ticks spent queuing
system.mem_ctrl.totBusLat                    28920000                       # Total ticks spent in databus transfers
system.mem_ctrl.totMemAccLat                315771000                       # Total ticks spent from burst creation until serviced by the DRAM
system.mem_ctrl.avgQLat                      24675.10                       # Average queueing delay per DRAM burst
system.mem_ctrl.avgBusLat                     4000.00                       # Average bus latency per DRAM burst
system.mem_ctrl.avgMemAccLat                 43675.10                       # Average memory access latency per DRAM burst
system.mem_ctrl.numRdRetry                          0                       # Number of times read queue was full causing retry
system.mem_ctrl.numWrRetry                          0                       # Number of times write queue was full causing retry
system.mem_ctrl.readRowHits                      5005                       # Number of row buffer hits during reads
system.mem_ctrl.writeRowHits                        0                       # Number of row buffer hits during writes
system.mem_ctrl.readRowHitRate                  69.23                       # Row buffer hit rate for reads
system.mem_ctrl.writeRowHitRate                   nan                       # Row buffer hit rate for writes
system.mem_ctrl.readPktSize::0                      0                       # Read request sizes (log2)
system.mem_ctrl.readPktSize::1                      0                       # Read request sizes (log2)
system.mem_ctrl.readPktSize::2                      0                       # Read request sizes (log2)
system.mem_ctrl.readPktSize::3                      0                       # Read request sizes (log2)
system.mem_ctrl.readPktSize::4                      0                       # Read request sizes (log2)
system.mem_ctrl.readPktSize::5                   7230                       # Read request sizes (log2)
system.mem_ctrl.writePktSize::0                     0                       # Write request sizes (log2)
system.mem_ctrl.writePktSize::1                     0                       # Write request sizes (log2)
system.mem_ctrl.writePktSize::2                     0                       # Write request sizes (log2)
system.mem_ctrl.writePktSize::3                     0                       # Write request sizes (log2)
system.mem_ctrl.writePktSize::4                     0                       # Write request sizes (log2)
system.mem_ctrl.writePktSize::5                     0                       # Write request sizes (log2)
system.mem_ctrl.rdQLenPdf::0                     3547                       # What read queue length does an incoming req see
system.mem_ctrl.rdQLenPdf::1                     3550                       # What read queue length does an incoming req see
system.mem_ctrl.rdQLenPdf::2                       66                       # What read queue length does an incoming req see
system.mem_ctrl.rdQLenPdf::3                       63                       # What read queue length does an incoming req see
system.mem_ctrl.rdQLenPdf::4                        2                       # What read queue length does an incoming req see
system.mem_ctrl.rdQLenPdf::5                        2                       # What read queue length does an incoming req see
system.mem_ctrl.rdQLenPdf::6                        0                       # What read queue length does an incoming req see
system.mem_ctrl.rdQLenPdf::7                        0                       # What read queue length does an incoming req see
system.mem_ctrl.rdQLenPdf::8                        0                       # What read queue length does an incoming req see
system.mem_ctrl.rdQLenPdf::9                        0                       # What read queue length does an incoming req see
system.mem_ctrl.rdQLenPdf::10                       0                       # What read queue length does an incoming req see
system.mem_ctrl.rdQLenPdf::11                       0                       # What read queue length does an incoming req see
system.mem_ctrl.rdQLenPdf::12                       0                       # What read queue length does an incoming req see
system.mem_ctrl.rdQLenPdf::13                       0                       # What read queue length does an incoming req see
system.mem_ctrl.rdQLenPdf::14                       0                       # What read queue length does an incoming req see
system.mem_ctrl.rdQLenPdf::15                       0                       # What read queue length does an incoming req see
system.mem_ctrl.rdQLenPdf::16                       0                       # What read queue length does an incoming req see
system.mem_ctrl.rdQLenPdf::17                       0                       # What read queue length does an incoming req see
system.mem_ctrl.rdQLenPdf::18                       0                       # What read queue length does an incoming req see
system.mem_ctrl.rdQLenPdf::19                       0                       # What read queue length does an incoming req see
system.mem_ctrl.rdQLenPdf::20                       0                       # What read queue length does an incoming req see
system.mem_ctrl.rdQLenPdf::21                       0                       # What read queue length does an incoming req see
system.mem_ctrl.rdQLenPdf::22                       0                       # What read queue length does an incoming req see
system.mem_ctrl.rdQLenPdf::23                       0                       # What read queue length does an incoming req see
system.mem_ctrl.rdQLenPdf::24                       0                       # What read queue length does an incoming req see
system.mem_ctrl.rdQLenPdf::25                       0                       # What read queue length does an incoming req see
system.mem_ctrl.rdQLenPdf::26                       0                       # What read queue length does an incoming req see
system.mem_ctrl.rdQLenPdf::27                       0                       # What read queue length does an incoming req see
system.mem_ctrl.rdQLenPdf::28                       0                       # What read queue length does an incoming req see
system.mem_ctrl.rdQLenPdf::29                       0                       # What read queue length does an incoming req see
system.mem_ctrl.rdQLenPdf::30                       0                       # What read queue length does an incoming req see
system.mem_ctrl.rdQLenPdf::31                       0                       # What read queue length does an incoming req see
system.mem_ctrl.wrQLenPdf::0                        0                       # What write queue length does an incoming req see
system.mem_ctrl.wrQLenPdf::1                        0                       # What write queue length does an incoming req see
system.mem_ctrl.wrQLenPdf::2                        0                       # What write queue length does an incoming req see
system.mem_ctrl.wrQLenPdf::3                        0                       # What write queue length does an incoming req see
system.mem_ctrl.wrQLenPdf::4                        0                       # What write queue length does an incoming req see
system.mem_ctrl.wrQLenPdf::5                        0                       # What write queue length does an incoming req see
system.mem_ctrl.wrQLenPdf::6                        0                       # What write queue length does an incoming req see
system.mem_ctrl.wrQLenPdf::7                        0                       # What write queue length does an incoming req see
system.mem_ctrl.wrQLenPdf::8                        0                       # What write queue length does an incoming req see
system.mem_ctrl.wrQLenPdf::9                        0                       # What write queue length does an incoming req see
system.mem_ctrl.wrQLenPdf::10                       0                       # What write queue length does an incoming req see
system.mem_ctrl.wrQLenPdf::11                       0                       # What write queue length does an incoming req see
system.mem_ctrl.wrQLenPdf::12                       0                       # What write queue length does an incoming req see
system.mem_ctrl.wrQLenPdf::13                       0                       # What write queue length does an incoming req see
system.mem_ctrl.wrQLenPdf::14                       0                       # What write queue length does an incoming req see
system.mem_ctrl.wrQLenPdf::15                       0                       # What write queue length does an incoming req see
system.mem_ctrl.wrQLenPdf::16                       0                       # What write queue length does an incoming req see
system.mem_ctrl.wrQLenPdf::17                       0                       # What write queue length does an incoming req see
system.mem_ctrl.wrQLenPdf::18                       0                       # What write queue length does an incoming req see
system.mem_ctrl.wrQLenPdf::19                       0                       # What write queue length does an incoming req see
system.mem_ctrl.wrQLenPdf::20                       0                       # What write queue length does an incoming req see
system.mem_ctrl.wrQLenPdf::21                       0                       # What write queue length does an incoming req see
system.mem_ctrl.wrQLenPdf::22                       0                       # What write queue length does an incoming req see
system.mem_ctrl.wrQLenPdf::23                       0                       # What write queue length does an incoming req see
system.mem_ctrl.wrQLenPdf::24                       0                       # What write queue length does an incoming req see
system.mem_ctrl.wrQLenPdf::25                       0                       # What write queue length does an incoming req see
system.mem_ctrl.wrQLenPdf::26                       0                       # What write queue length does an incoming req see
system.mem_ctrl.wrQLenPdf::27                       0                       # What write queue length does an incoming req see
system.mem_ctrl.wrQLenPdf::28                       0                       # What write queue length does an incoming req see
system.mem_ctrl.wrQLenPdf::29                       0                       # What write queue length does an incoming req see
system.mem_ctrl.wrQLenPdf::30                       0                       # What write queue length does an incoming req see
system.mem_ctrl.wrQLenPdf::31                       0                       # What write queue length does an incoming req see
system.mem_ctrl.wrQLenPdf::32                       0                       # What write queue length does an incoming req see
system.mem_ctrl.wrQLenPdf::33                       0                       # What write queue length does an incoming req see
system.mem_ctrl.wrQLenPdf::34                       0                       # What write queue length does an incoming req see
system.mem_ctrl.wrQLenPdf::35                       0                       # What write queue length does an incoming req see
system.mem_ctrl.wrQLenPdf::36                       0                       # What write queue length does an incoming req see
system.mem_ctrl.wrQLenPdf::37                       0                       # What write queue length does an incoming req see
system.mem_ctrl.wrQLenPdf::38                       0                       # What write queue length does an incoming req see
system.mem_ctrl.wrQLenPdf::39                       0                       # What write queue length does an incoming req see
system.mem_ctrl.wrQLenPdf::40                       0                       # What write queue length does an incoming req see
system.mem_ctrl.wrQLenPdf::41                       0                       # What write queue length does an incoming req see
system.mem_ctrl.wrQLenPdf::42                       0                       # What write queue length does an incoming req see
system.mem_ctrl.wrQLenPdf::43                       0                       # What write queue length does an incoming req see
system.mem_ctrl.wrQLenPdf::44                       0                       # What write queue length does an incoming req see
system.mem_ctrl.wrQLenPdf::45                       0                       # What write queue length does an incoming req see
system.mem_ctrl.wrQLenPdf::46                       0                       # What write queue length does an incoming req see
system.mem_ctrl.wrQLenPdf::47                       0                       # What write queue length does an incoming req see
system.mem_ctrl.wrQLenPdf::48                       0                       # What write queue length does an incoming req see
system.mem_ctrl.wrQLenPdf::49                       0                       # What write queue length does an incoming req see
system.mem_ctrl.wrQLenPdf::50                       0                       # What write queue length does an incoming req see
system.mem_ctrl.wrQLenPdf::51                       0                       # What write queue length does an incoming req see
system.mem_ctrl.wrQLenPdf::52                       0                       # What write queue length does an incoming req see
system.mem_ctrl.wrQLenPdf::53                       0                       # What write queue length does an incoming req see
system.mem_ctrl.wrQLenPdf::54                       0                       # What write queue length does an incoming req see
system.mem_ctrl.wrQLenPdf::55                       0                       # What write queue length does an incoming req see
system.mem_ctrl.wrQLenPdf::56                       0                       # What write queue length does an incoming req see
system.mem_ctrl.wrQLenPdf::57                       0                       # What write queue length does an incoming req see
system.mem_ctrl.wrQLenPdf::58                       0                       # What write queue length does an incoming req see
system.mem_ctrl.wrQLenPdf::59                       0                       # What write queue length does an incoming req see
system.mem_ctrl.wrQLenPdf::60                       0                       # What write queue length does an incoming req see
system.mem_ctrl.wrQLenPdf::61                       0                       # What write queue length does an incoming req see
system.mem_ctrl.wrQLenPdf::62                       0                       # What write queue length does an incoming req see
system.mem_ctrl.wrQLenPdf::63                       0                       # What write queue length does an incoming req see
system.mem_ctrl.bytesPerActivate::samples         2223                       # Bytes accessed per row activation
system.mem_ctrl.bytesPerActivate::mean     103.989204                       # Bytes accessed per row activation
system.mem_ctrl.bytesPerActivate::gmean     94.540257                       # Bytes accessed per row activation
system.mem_ctrl.bytesPerActivate::stdev     56.489820                       # Bytes accessed per row activation
system.mem_ctrl.bytesPerActivate::0-63              3      0.13%      0.13% # Bytes accessed per row activation
system.mem_ctrl.bytesPerActivate::64-127         1060     47.68%     47.82% # Bytes accessed per row activation
system.mem_ctrl.bytesPerActivate::128-191         1081     48.63%     96.45% # Bytes accessed per row activation
system.mem_ctrl.bytesPerActivate::192-255           27      1.21%     97.66% # Bytes accessed per row activation
system.mem_ctrl.bytesPerActivate::256-319           18      0.81%     98.47% # Bytes accessed per row activation
system.mem_ctrl.bytesPerActivate::320-383            9      0.40%     98.88% # Bytes accessed per row activation
system.mem_ctrl.bytesPerActivate::384-447            4      0.18%     99.06% # Bytes accessed per row activation
system.mem_ctrl.bytesPerActivate::448-511            2      0.09%     99.15% # Bytes accessed per row activation
system.mem_ctrl.bytesPerActivate::512-575           19      0.85%    100.00% # Bytes accessed per row activation
system.mem_ctrl.bytesPerActivate::total          2223                       # Bytes accessed per row activation
system.mem_ctrl.bytesReadDRAM                  231360                       # Total number of bytes read from DRAM
system.mem_ctrl.bytesReadWrQ                        0                       # Total number of bytes read from write queue
system.mem_ctrl.bytesWritten                        0                       # Total number of bytes written to DRAM
system.mem_ctrl.bytesReadSys                   231360                       # Total read bytes from the system interface side
system.mem_ctrl.bytesWrittenSys                     0                       # Total written bytes from the system interface side
system.mem_ctrl.avgRdBW                          7.37                       # Average DRAM read bandwidth in MiByte/s
system.mem_ctrl.avgWrBW                          0.00                       # Average achieved write bandwidth in MiByte/s
system.mem_ctrl.avgRdBWSys                       7.37                       # Average system read bandwidth in MiByte/s
system.mem_ctrl.avgWrBWSys                       0.00                       # Average system write bandwidth in MiByte/s
system.mem_ctrl.peakBW                        8000.00                       # Theoretical peak bandwidth in MiByte/s
system.mem_ctrl.busUtil                          0.09                       # Data bus utilization in percentage
system.mem_ctrl.busUtilRead                      0.09                       # Data bus utilization in percentage for reads
system.mem_ctrl.busUtilWrite                     0.00                       # Data bus utilization in percentage for writes
system.mem_ctrl.totGap                    31371750000                       # Total gap between requests
system.mem_ctrl.avgGap                     8678215.77                       # Average gap between requests
system.mem_ctrl.masterReadBytes::.cpu.inst        24192                       # Per-master bytes read from memory
system.mem_ctrl.masterReadBytes::.cpu.data       207168                       # Per-master bytes read from memory
system.mem_ctrl.masterReadRate::.cpu.inst 771136.886933902744                       # Per-master bytes read from memory rate (Bytes/sec)
system.mem_ctrl.masterReadRate::.cpu.data 6603624.611124453135                       # Per-master bytes read from memory rate (Bytes/sec)
system.mem_ctrl.masterReadAccesses::.cpu.inst          756                       # Per-master read serviced memory accesses
system.mem_ctrl.masterReadAccesses::.cpu.data         6474                       # Per-master read serviced memory accesses
system.mem_ctrl.masterReadTotalLat::.cpu.inst     25091000                       # Per-master read total memory access latency
system.mem_ctrl.masterReadTotalLat::.cpu.data    290680000                       # Per-master read total memory access latency
system.mem_ctrl.masterReadAvgLat::.cpu.inst     33189.15                       # Per-master read average memory access latency
system.mem_ctrl.masterReadAvgLat::.cpu.data     44899.60                       # Per-master read average memory access latency
system.mem_ctrl.pageHitRate                     69.23                       # Row buffer hit rate, read and write combined
system.mem_ctrl.rank0.actEnergy                     0                       # Energy for activate commands per rank (pJ)
system.mem_ctrl.rank0.preEnergy                     0                       # Energy for precharge commands per rank (pJ)
system.mem_ctrl.rank0.readEnergy                    0                       # Energy for read commands per rank (pJ)
system.mem_ctrl.rank0.writeEnergy                   0                       # Energy for write commands per rank (pJ)
system.mem_ctrl.rank0.refreshEnergy                 0                       # Energy for refresh commands per rank (pJ)
system.mem_ctrl.rank0.actBackEnergy                 0                       # Energy for active background per rank (pJ)
system.mem_ctrl.rank0.preBackEnergy                 0                       # Energy for precharge background per rank (pJ)
system.mem_ctrl.rank0.actPowerDownEnergy            0                       # Energy for active power-down per rank (pJ)
system.mem_ctrl.rank0.prePowerDownEnergy            0                       # Energy for precharge power-down per rank (pJ)
system.mem_ctrl.rank0.selfRefreshEnergy             0                       # Energy for self refresh per rank (pJ)
system.mem_ctrl.rank0.totalEnergy                   0                       # Total energy per rank (pJ)
system.mem_ctrl.rank0.averagePower                  0                       # Core power per rank (mW)
system.mem_ctrl.rank0.totalIdleTime                 0                       # Total Idle time Per DRAM Rank
system.mem_ctrl.rank0.memoryStateTime::IDLE  27036580500                       # Time in different power states
system.mem_ctrl.rank0.memoryStateTime::REF   2099500000                       # Time in different power states
system.mem_ctrl.rank0.memoryStateTime::SREF            0                       # Time in different power states
system.mem_ctrl.rank0.memoryStateTime::PRE_PDN            0                       # Time in different power states
system.mem_ctrl.rank0.memoryStateTime::ACT   2235781500                       # Time in different power states
system.mem_ctrl.rank0.memoryStateTime::ACT_PDN            0                       # Time in different power states

---------- End Simulation Statistics   ----------
