
---------- Begin Simulation Statistics ----------
final_tick                                 7898414500                       # Number of ticks from beginning of simulation (restored from checkpoints and never reset)
host_inst_rate                                 117489                       # Simulator instruction rate (inst/s)
host_mem_usage                                 794420                       # Number of bytes of host memory used
host_op_rate                                   186062                       # Simulator op (including micro ops) rate (op/s)
host_seconds                                    51.11                       # Real time elapsed on the host
host_tick_rate                              154548226                       # Simulator tick rate (ticks/s)
sim_freq                                 1000000000000                       # Frequency of simulated ticks
sim_insts                                     6004433                       # Number of instructions simulated
sim_ops                                       9508954                       # Number of ops (including micro ops) simulated
sim_seconds                                  0.007898                       # Number of seconds simulated
sim_ticks                                  7898414500                       # Number of ticks simulated
system.cpu.branchPred.BTBCorrect                    0                       # Number of correct BTB predictions (this stat may not work properly.
system.cpu.branchPred.BTBHitPct              0.000000                       # BTB Hit Percentage
system.cpu.branchPred.BTBHits                       0                       # Number of BTB hits
system.cpu.branchPred.BTBLookups               502250                       # Number of BTB lookups
system.cpu.branchPred.RASInCorrect                  1                       # Number of incorrect RAS predictions.
system.cpu.branchPred.condIncorrect               485                       # Number of conditional branches incorrect
system.cpu.branchPred.condPredicted            502028                       # Number of conditional branches predicted
system.cpu.branchPred.indirectHits             500303                       # Number of indirect target hits.
system.cpu.branchPred.indirectLookups          502250                       # Number of indirect predictor lookups.
system.cpu.branchPred.indirectMisses             1947                       # Number of indirect misses.
system.cpu.branchPred.lookups                  502686                       # Number of BP lookups
system.cpu.branchPred.usedRAS                     229                       # Number of times the RAS was used to get a target.
system.cpu.branchPredindirectMispredicted          422                       # Number of mispredicted indirect branches.
system.cpu.cc_regfile_reads                   5006438                       # number of cc regfile reads
system.cpu.cc_regfile_writes                  9004159                       # number of cc regfile writes
system.cpu.commit.amos                              0                       # Number of atomic instructions committed
system.cpu.commit.branchMispredicts               507                       # The number of times a branch was mispredicted
system.cpu.commit.branches                     500944                       # Number of branches committed
system.cpu.commit.bw_lim_events               1034365                       # number cycles where commit BW limit reached
system.cpu.commit.commitNonSpecStalls               8                       # The number of times commit has been forced to stall to communicate backwards
system.cpu.commit.commitSquashedInsts           10901                       # The number of squashed insts skipped by commit
system.cpu.commit.committedInsts              6004433                       # Number of instructions committed
system.cpu.commit.committedOps                9508954                       # Number of ops (including micro ops) committed
system.cpu.commit.committed_per_cycle::samples     31556101                       # Number of insts commited each cycle
system.cpu.commit.committed_per_cycle::mean     0.301335                       # Number of insts commited each cycle
system.cpu.commit.committed_per_cycle::stdev     1.453101                       # Number of insts commited each cycle
system.cpu.commit.committed_per_cycle::underflows            0      0.00%      0.00% # Number of insts commited each cycle
system.cpu.commit.committed_per_cycle::0     29848834     94.59%     94.59% # Number of insts commited each cycle
system.cpu.commit.committed_per_cycle::1       347983      1.10%     95.69% # Number of insts commited each cycle
system.cpu.commit.committed_per_cycle::2       241994      0.77%     96.46% # Number of insts commited each cycle
system.cpu.commit.committed_per_cycle::3         7412      0.02%     96.48% # Number of insts commited each cycle
system.cpu.commit.committed_per_cycle::4          556      0.00%     96.48% # Number of insts commited each cycle
system.cpu.commit.committed_per_cycle::5        72304      0.23%     96.71% # Number of insts commited each cycle
system.cpu.commit.committed_per_cycle::6         2488      0.01%     96.72% # Number of insts commited each cycle
system.cpu.commit.committed_per_cycle::7          165      0.00%     96.72% # Number of insts commited each cycle
system.cpu.commit.committed_per_cycle::8      1034365      3.28%    100.00% # Number of insts commited each cycle
system.cpu.commit.committed_per_cycle::overflows            0      0.00%    100.00% # Number of insts commited each cycle
system.cpu.commit.committed_per_cycle::min_value            0                       # Number of insts commited each cycle
system.cpu.commit.committed_per_cycle::max_value            8                       # Number of insts commited each cycle
system.cpu.commit.committed_per_cycle::total     31556101                       # Number of insts commited each cycle
system.cpu.commit.fp_insts                        302                       # Number of committed floating point instructions.
system.cpu.commit.function_calls                   88                       # Number of function calls committed.
system.cpu.commit.int_insts                   9508809                       # Number of committed integer instructions.
system.cpu.commit.loads                        500767                       # Number of loads committed
system.cpu.commit.membars                           0                       # Number of memory barriers committed
system.cpu.commit.op_class_0::No_OpClass           41      0.00%      0.00% # Class of committed instruction
system.cpu.commit.op_class_0::IntAlu          9006985     94.72%     94.72% # Class of committed instruction
system.cpu.commit.op_class_0::IntMult               5      0.00%     94.72% # Class of committed instruction
system.cpu.commit.op_class_0::IntDiv               21      0.00%     94.72% # Class of committed instruction
system.cpu.commit.op_class_0::FloatAdd              2      0.00%     94.72% # Class of committed instruction
system.cpu.commit.op_class_0::FloatCmp              0      0.00%     94.72% # Class of committed instruction
system.cpu.commit.op_class_0::FloatCvt              0      0.00%     94.72% # Class of committed instruction
system.cpu.commit.op_class_0::FloatMult             0      0.00%     94.72% # Class of committed instruction
system.cpu.commit.op_class_0::FloatMultAcc            0      0.00%     94.72% # Class of committed instruction
system.cpu.commit.op_class_0::FloatDiv              0      0.00%     94.72% # Class of committed instruction
system.cpu.commit.op_class_0::FloatMisc             0      0.00%     94.72% # Class of committed instruction
system.cpu.commit.op_class_0::FloatSqrt             0      0.00%     94.72% # Class of committed instruction
system.cpu.commit.op_class_0::SimdAdd               0      0.00%     94.72% # Class of committed instruction
system.cpu.commit.op_class_0::SimdAddAcc            0      0.00%     94.72% # Class of committed instruction
system.cpu.commit.op_class_0::SimdAlu              42      0.00%     94.72% # Class of committed instruction
system.cpu.commit.op_class_0::SimdCmp               0      0.00%     94.72% # Class of committed instruction
system.cpu.commit.op_class_0::SimdCvt              30      0.00%     94.72% # Class of committed instruction
system.cpu.commit.op_class_0::SimdMisc             44      0.00%     94.72% # Class of committed instruction
system.cpu.commit.op_class_0::SimdMult              0      0.00%     94.72% # Class of committed instruction
system.cpu.commit.op_class_0::SimdMultAcc            0      0.00%     94.72% # Class of committed instruction
system.cpu.commit.op_class_0::SimdShift             0      0.00%     94.72% # Class of committed instruction
system.cpu.commit.op_class_0::SimdShiftAcc            0      0.00%     94.72% # Class of committed instruction
system.cpu.commit.op_class_0::SimdDiv               0      0.00%     94.72% # Class of committed instruction
system.cpu.commit.op_class_0::SimdSqrt              0      0.00%     94.72% # Class of committed instruction
system.cpu.commit.op_class_0::SimdFloatAdd            0      0.00%     94.72% # Class of committed instruction
system.cpu.commit.op_class_0::SimdFloatAlu            0      0.00%     94.72% # Class of committed instruction
system.cpu.commit.op_class_0::SimdFloatCmp            0      0.00%     94.72% # Class of committed instruction
system.cpu.commit.op_class_0::SimdFloatCvt            0      0.00%     94.72% # Class of committed instruction
system.cpu.commit.op_class_0::SimdFloatDiv            0      0.00%     94.72% # Class of committed instruction
system.cpu.commit.op_class_0::SimdFloatMisc            0      0.00%     94.72% # Class of committed instruction
system.cpu.commit.op_class_0::SimdFloatMult            0      0.00%     94.72% # Class of committed instruction
system.cpu.commit.op_class_0::SimdFloatMultAcc            0      0.00%     94.72% # Class of committed instruction
system.cpu.commit.op_class_0::SimdFloatSqrt            0      0.00%     94.72% # Class of committed instruction
system.cpu.commit.op_class_0::SimdReduceAdd            0      0.00%     94.72% # Class of committed instruction
system.cpu.commit.op_class_0::SimdReduceAlu            0      0.00%     94.72% # Class of committed instruction
system.cpu.commit.op_class_0::SimdReduceCmp            0      0.00%     94.72% # Class of committed instruction
system.cpu.commit.op_class_0::SimdFloatReduceAdd            0      0.00%     94.72% # Class of committed instruction
system.cpu.commit.op_class_0::SimdFloatReduceCmp            0      0.00%     94.72% # Class of committed instruction
system.cpu.commit.op_class_0::SimdAes               0      0.00%     94.72% # Class of committed instruction
system.cpu.commit.op_class_0::SimdAesMix            0      0.00%     94.72% # Class of committed instruction
system.cpu.commit.op_class_0::SimdSha1Hash            0      0.00%     94.72% # Class of committed instruction
system.cpu.commit.op_class_0::SimdSha1Hash2            0      0.00%     94.72% # Class of committed instruction
system.cpu.commit.op_class_0::SimdSha256Hash            0      0.00%     94.72% # Class of committed instruction
system.cpu.commit.op_class_0::SimdSha256Hash2            0      0.00%     94.72% # Class of committed instruction
system.cpu.commit.op_class_0::SimdShaSigma2            0      0.00%     94.72% # Class of committed instruction
system.cpu.commit.op_class_0::SimdShaSigma3            0      0.00%     94.72% # Class of committed instruction
system.cpu.commit.op_class_0::SimdPredAlu            0      0.00%     94.72% # Class of committed instruction
system.cpu.commit.op_class_0::MemRead          500741      5.27%     99.99% # Class of committed instruction
system.cpu.commit.op_class_0::MemWrite            865      0.01%    100.00% # Class of committed instruction
system.cpu.commit.op_class_0::FloatMemRead           26      0.00%    100.00% # Class of committed instruction
system.cpu.commit.op_class_0::FloatMemWrite          152      0.00%    100.00% # Class of committed instruction
system.cpu.commit.op_class_0::IprAccess             0      0.00%    100.00% # Class of committed instruction
system.cpu.commit.op_class_0::InstPrefetch            0      0.00%    100.00% # Class of committed instruction
system.cpu.commit.op_class_0::total           9508954                       # Class of committed instruction
system.cpu.commit.refs                         501784                       # Number of memory references committed
system.cpu.commit.swp_count                         0                       # Number of s/w prefetches committed
system.cpu.commit.vec_insts                         0                       # Number of committed Vector instructions.
system.cpu.committedInsts                     6004433                       # Number of Instructions Simulated
system.cpu.committedOps                       9508954                       # Number of Ops (including micro ops) Simulated
system.cpu.cpi                               5.261722                       # CPI: Cycles Per Instruction
system.cpu.cpi_total                         5.261722                       # CPI: Total CPI of All Threads
system.cpu.decode.BlockedCycles              30061125                       # Number of cycles decode is blocked
system.cpu.decode.DecodedInsts                9524034                       # Number of instructions handled by decode
system.cpu.decode.IdleCycles                   290242                       # Number of cycles decode is idle
system.cpu.decode.RunCycles                    613380                       # Number of cycles decode is running
system.cpu.decode.SquashCycles                    514                       # Number of cycles decode is squashing
system.cpu.decode.UnblockCycles                592671                       # Number of cycles decode is unblocking
system.cpu.dtb.rdAccesses                      501489                       # TLB accesses on read requests
system.cpu.dtb.rdMisses                        438710                       # TLB misses on read requests
system.cpu.dtb.wrAccesses                        1590                       # TLB accesses on write requests
system.cpu.dtb.wrMisses                             8                       # TLB misses on write requests
system.cpu.fetch.Branches                      502686                       # Number of branches that fetch encountered
system.cpu.fetch.CacheLines                   1001888                       # Number of cache lines fetched
system.cpu.fetch.Cycles                      30539502                       # Number of cycles fetch has run and was not squashing or blocked
system.cpu.fetch.IcacheSquashes                   297                       # Number of outstanding Icache misses that were squashed
system.cpu.fetch.IcacheWaitRetryStallCycles          161                       # Number of stall cycles due to full MSHR
system.cpu.fetch.Insts                        6012975                       # Number of instructions fetch has processed
system.cpu.fetch.MiscStallCycles                   54                       # Number of cycles fetch has spent waiting on interrupts, or bad addresses, or out of MSHRs
system.cpu.fetch.PendingQuiesceStallCycles           15                       # Number of stall cycles due to pending quiesce instructions
system.cpu.fetch.PendingTrapStallCycles           139                       # Number of stall cycles due to pending traps
system.cpu.fetch.SquashCycles                    1028                       # Number of cycles fetch has spent squashing
system.cpu.fetch.branchRate                  0.015911                       # Number of branch fetches per cycle
system.cpu.fetch.icacheStallCycles            1017547                       # Number of cycles fetch is stalled on an Icache miss
system.cpu.fetch.predictedBranches             500532                       # Number of branches that fetch has predicted taken
system.cpu.fetch.rate                        0.190322                       # Number of inst fetches per cycle
system.cpu.fetch.rateDist::samples           31557932                       # Number of instructions fetched each cycle (Total)
system.cpu.fetch.rateDist::mean              0.301862                       # Number of instructions fetched each cycle (Total)
system.cpu.fetch.rateDist::stdev             1.338232                       # Number of instructions fetched each cycle (Total)
system.cpu.fetch.rateDist::underflows               0      0.00%      0.00% # Number of instructions fetched each cycle (Total)
system.cpu.fetch.rateDist::0                 29802637     94.44%     94.44% # Number of instructions fetched each cycle (Total)
system.cpu.fetch.rateDist::1                   112745      0.36%     94.80% # Number of instructions fetched each cycle (Total)
system.cpu.fetch.rateDist::2                   105428      0.33%     95.13% # Number of instructions fetched each cycle (Total)
system.cpu.fetch.rateDist::3                    84552      0.27%     95.40% # Number of instructions fetched each cycle (Total)
system.cpu.fetch.rateDist::4                   123074      0.39%     95.79% # Number of instructions fetched each cycle (Total)
system.cpu.fetch.rateDist::5                   525581      1.67%     97.45% # Number of instructions fetched each cycle (Total)
system.cpu.fetch.rateDist::6                   288201      0.91%     98.37% # Number of instructions fetched each cycle (Total)
system.cpu.fetch.rateDist::7                    26234      0.08%     98.45% # Number of instructions fetched each cycle (Total)
system.cpu.fetch.rateDist::8                   489480      1.55%    100.00% # Number of instructions fetched each cycle (Total)
system.cpu.fetch.rateDist::overflows                0      0.00%    100.00% # Number of instructions fetched each cycle (Total)
system.cpu.fetch.rateDist::min_value                0                       # Number of instructions fetched each cycle (Total)
system.cpu.fetch.rateDist::max_value                8                       # Number of instructions fetched each cycle (Total)
system.cpu.fetch.rateDist::total             31557932                       # Number of instructions fetched each cycle (Total)
system.cpu.fp_regfile_reads                       532                       # number of floating regfile reads
system.cpu.fp_regfile_writes                      184                       # number of floating regfile writes
system.cpu.idleCycles                           35727                       # Total number of cycles that the CPU has spent unscheduled due to idling
system.cpu.iew.branchMispredicts                  644                       # Number of branch mispredicts detected at execute
system.cpu.iew.exec_branches                   501382                       # Number of branches executed
system.cpu.iew.exec_nop                             0                       # number of nop insts executed
system.cpu.iew.exec_rate                     0.388149                       # Inst execution rate
system.cpu.iew.exec_refs                      3250740                       # number of memory reference insts executed
system.cpu.iew.exec_stores                       1589                       # Number of stores executed
system.cpu.iew.exec_swp                             0                       # number of swp insts executed
system.cpu.iew.iewBlockCycles                    1802                       # Number of cycles IEW is blocking
system.cpu.iew.iewDispLoadInsts                502093                       # Number of dispatched load instructions
system.cpu.iew.iewDispNonSpecInsts                 34                       # Number of dispatched non-speculative instructions
system.cpu.iew.iewDispSquashedInsts                 8                       # Number of squashed instructions skipped by dispatch
system.cpu.iew.iewDispStoreInsts                 2042                       # Number of dispatched store instructions
system.cpu.iew.iewDispatchedInsts             9519855                       # Number of instructions dispatched to IQ
system.cpu.iew.iewExecLoadInsts               3249151                       # Number of load instructions executed
system.cpu.iew.iewExecSquashedInsts               863                       # Number of squashed instructions skipped in execute
system.cpu.iew.iewExecutedInsts              12263032                       # Number of executed instructions
system.cpu.iew.iewIQFullEvents                     11                       # Number of times the IQ has become full, causing a stall
system.cpu.iew.iewIdleCycles                        0                       # Number of cycles IEW is idle
system.cpu.iew.iewLSQFullEvents                  1841                       # Number of times the LSQ has become full, causing a stall
system.cpu.iew.iewSquashCycles                    514                       # Number of cycles IEW is squashing
system.cpu.iew.iewUnblockCycles                  1855                       # Number of cycles IEW is unblocking
system.cpu.iew.lsq.thread0.blockedLoads             0                       # Number of blocked loads due to partial load-store forwarding
system.cpu.iew.lsq.thread0.cacheBlocked        481785                       # Number of times an access to memory failed due to the cache being blocked
system.cpu.iew.lsq.thread0.forwLoads               72                       # Number of loads that had data forwarded from stores
system.cpu.iew.lsq.thread0.ignoredResponses            2                       # Number of memory responses ignored because the instruction is squashed
system.cpu.iew.lsq.thread0.invAddrLoads             0                       # Number of loads ignored due to an invalid address
system.cpu.iew.lsq.thread0.invAddrSwpfs             0                       # Number of software prefetches ignored due to an invalid address
system.cpu.iew.lsq.thread0.memOrderViolation            6                       # Number of memory ordering violations
system.cpu.iew.lsq.thread0.rescheduledLoads            1                       # Number of loads that were rescheduled
system.cpu.iew.lsq.thread0.squashedLoads         1326                       # Number of loads squashed
system.cpu.iew.lsq.thread0.squashedStores         1025                       # Number of stores squashed
system.cpu.iew.memOrderViolationEvents              6                       # Number of memory order violations
system.cpu.iew.predictedNotTakenIncorrect          628                       # Number of branches that were predicted not taken incorrectly
system.cpu.iew.predictedTakenIncorrect             16                       # Number of branches that were predicted taken incorrectly
system.cpu.iew.wb_consumers                  13197632                       # num instructions consuming a value
system.cpu.iew.wb_count                       9514945                       # cumulative count of insts written-back
system.cpu.iew.wb_fanout                     0.608070                       # average fanout of values written-back
system.cpu.iew.wb_producers                   8025083                       # num instructions producing a value
system.cpu.iew.wb_rate                       0.301166                       # insts written-back per cycle
system.cpu.iew.wb_sent                        9515128                       # cumulative count of insts sent to commit
system.cpu.int_regfile_reads                 19515204                       # number of integer regfile reads
system.cpu.int_regfile_writes                 9011742                       # number of integer regfile writes
system.cpu.ipc                               0.190052                       # IPC: Instructions Per Cycle
system.cpu.ipc_total                         0.190052                       # IPC: Total IPC of All Threads
system.cpu.iq.FU_type_0::No_OpClass               279      0.00%      0.00% # Type of FU issued
system.cpu.iq.FU_type_0::IntAlu               9012412     73.49%     73.49% # Type of FU issued
system.cpu.iq.FU_type_0::IntMult                    5      0.00%     73.49% # Type of FU issued
system.cpu.iq.FU_type_0::IntDiv                    25      0.00%     73.49% # Type of FU issued
system.cpu.iq.FU_type_0::FloatAdd                   2      0.00%     73.49% # Type of FU issued
system.cpu.iq.FU_type_0::FloatCmp                   0      0.00%     73.49% # Type of FU issued
system.cpu.iq.FU_type_0::FloatCvt                   0      0.00%     73.49% # Type of FU issued
system.cpu.iq.FU_type_0::FloatMult                  0      0.00%     73.49% # Type of FU issued
system.cpu.iq.FU_type_0::FloatMultAcc               0      0.00%     73.49% # Type of FU issued
system.cpu.iq.FU_type_0::FloatDiv                   0      0.00%     73.49% # Type of FU issued
system.cpu.iq.FU_type_0::FloatMisc                  0      0.00%     73.49% # Type of FU issued
system.cpu.iq.FU_type_0::FloatSqrt                  0      0.00%     73.49% # Type of FU issued
system.cpu.iq.FU_type_0::SimdAdd                    0      0.00%     73.49% # Type of FU issued
system.cpu.iq.FU_type_0::SimdAddAcc                 0      0.00%     73.49% # Type of FU issued
system.cpu.iq.FU_type_0::SimdAlu                   73      0.00%     73.49% # Type of FU issued
system.cpu.iq.FU_type_0::SimdCmp                    0      0.00%     73.49% # Type of FU issued
system.cpu.iq.FU_type_0::SimdCvt                   51      0.00%     73.49% # Type of FU issued
system.cpu.iq.FU_type_0::SimdMisc                  64      0.00%     73.49% # Type of FU issued
system.cpu.iq.FU_type_0::SimdMult                   0      0.00%     73.49% # Type of FU issued
system.cpu.iq.FU_type_0::SimdMultAcc                0      0.00%     73.49% # Type of FU issued
system.cpu.iq.FU_type_0::SimdShift                  0      0.00%     73.49% # Type of FU issued
system.cpu.iq.FU_type_0::SimdShiftAcc               0      0.00%     73.49% # Type of FU issued
system.cpu.iq.FU_type_0::SimdDiv                    0      0.00%     73.49% # Type of FU issued
system.cpu.iq.FU_type_0::SimdSqrt                   0      0.00%     73.49% # Type of FU issued
system.cpu.iq.FU_type_0::SimdFloatAdd               0      0.00%     73.49% # Type of FU issued
system.cpu.iq.FU_type_0::SimdFloatAlu               0      0.00%     73.49% # Type of FU issued
system.cpu.iq.FU_type_0::SimdFloatCmp               0      0.00%     73.49% # Type of FU issued
system.cpu.iq.FU_type_0::SimdFloatCvt               0      0.00%     73.49% # Type of FU issued
system.cpu.iq.FU_type_0::SimdFloatDiv               0      0.00%     73.49% # Type of FU issued
system.cpu.iq.FU_type_0::SimdFloatMisc              0      0.00%     73.49% # Type of FU issued
system.cpu.iq.FU_type_0::SimdFloatMult              0      0.00%     73.49% # Type of FU issued
system.cpu.iq.FU_type_0::SimdFloatMultAcc            0      0.00%     73.49% # Type of FU issued
system.cpu.iq.FU_type_0::SimdFloatSqrt              0      0.00%     73.49% # Type of FU issued
system.cpu.iq.FU_type_0::SimdReduceAdd              0      0.00%     73.49% # Type of FU issued
system.cpu.iq.FU_type_0::SimdReduceAlu              0      0.00%     73.49% # Type of FU issued
system.cpu.iq.FU_type_0::SimdReduceCmp              0      0.00%     73.49% # Type of FU issued
system.cpu.iq.FU_type_0::SimdFloatReduceAdd            0      0.00%     73.49% # Type of FU issued
system.cpu.iq.FU_type_0::SimdFloatReduceCmp            0      0.00%     73.49% # Type of FU issued
system.cpu.iq.FU_type_0::SimdAes                    0      0.00%     73.49% # Type of FU issued
system.cpu.iq.FU_type_0::SimdAesMix                 0      0.00%     73.49% # Type of FU issued
system.cpu.iq.FU_type_0::SimdSha1Hash               0      0.00%     73.49% # Type of FU issued
system.cpu.iq.FU_type_0::SimdSha1Hash2              0      0.00%     73.49% # Type of FU issued
system.cpu.iq.FU_type_0::SimdSha256Hash             0      0.00%     73.49% # Type of FU issued
system.cpu.iq.FU_type_0::SimdSha256Hash2            0      0.00%     73.49% # Type of FU issued
system.cpu.iq.FU_type_0::SimdShaSigma2              0      0.00%     73.49% # Type of FU issued
system.cpu.iq.FU_type_0::SimdShaSigma3              0      0.00%     73.49% # Type of FU issued
system.cpu.iq.FU_type_0::SimdPredAlu                0      0.00%     73.49% # Type of FU issued
system.cpu.iq.FU_type_0::MemRead              3249234     26.49%     99.99% # Type of FU issued
system.cpu.iq.FU_type_0::MemWrite                1521      0.01%    100.00% # Type of FU issued
system.cpu.iq.FU_type_0::FloatMemRead              72      0.00%    100.00% # Type of FU issued
system.cpu.iq.FU_type_0::FloatMemWrite            157      0.00%    100.00% # Type of FU issued
system.cpu.iq.FU_type_0::IprAccess                  0      0.00%    100.00% # Type of FU issued
system.cpu.iq.FU_type_0::InstPrefetch               0      0.00%    100.00% # Type of FU issued
system.cpu.iq.FU_type_0::total               12263895                       # Type of FU issued
system.cpu.iq.fp_alu_accesses                     440                       # Number of floating point alu accesses
system.cpu.iq.fp_inst_queue_reads                 870                       # Number of floating instruction queue reads
system.cpu.iq.fp_inst_queue_wakeup_accesses          389                       # Number of floating instruction queue wakeup accesses
system.cpu.iq.fp_inst_queue_writes                732                       # Number of floating instruction queue writes
system.cpu.iq.fu_busy_cnt                      413418                       # FU busy when requested
system.cpu.iq.fu_busy_rate                   0.033710                       # FU busy rate (busy events/executed inst)
system.cpu.iq.fu_full::No_OpClass                   0      0.00%      0.00% # attempts to use FU when none available
system.cpu.iq.fu_full::IntAlu                   11015      2.66%      2.66% # attempts to use FU when none available
system.cpu.iq.fu_full::IntMult                      0      0.00%      2.66% # attempts to use FU when none available
system.cpu.iq.fu_full::IntDiv                       0      0.00%      2.66% # attempts to use FU when none available
system.cpu.iq.fu_full::FloatAdd                     0      0.00%      2.66% # attempts to use FU when none available
system.cpu.iq.fu_full::FloatCmp                     0      0.00%      2.66% # attempts to use FU when none available
system.cpu.iq.fu_full::FloatCvt                     0      0.00%      2.66% # attempts to use FU when none available
system.cpu.iq.fu_full::FloatMult                    0      0.00%      2.66% # attempts to use FU when none available
system.cpu.iq.fu_full::FloatMultAcc                 0      0.00%      2.66% # attempts to use FU when none available
system.cpu.iq.fu_full::FloatDiv                     0      0.00%      2.66% # attempts to use FU when none available
system.cpu.iq.fu_full::FloatMisc                    0      0.00%      2.66% # attempts to use FU when none available
system.cpu.iq.fu_full::FloatSqrt                    0      0.00%      2.66% # attempts to use FU when none available
system.cpu.iq.fu_full::SimdAdd                      0      0.00%      2.66% # attempts to use FU when none available
system.cpu.iq.fu_full::SimdAddAcc                   0      0.00%      2.66% # attempts to use FU when none available
system.cpu.iq.fu_full::SimdAlu                      3      0.00%      2.67% # attempts to use FU when none available
system.cpu.iq.fu_full::SimdCmp                      0      0.00%      2.67% # attempts to use FU when none available
system.cpu.iq.fu_full::SimdCvt                      2      0.00%      2.67% # attempts to use FU when none available
system.cpu.iq.fu_full::SimdMisc                     0      0.00%      2.67% # attempts to use FU when none available
system.cpu.iq.fu_full::SimdMult                     0      0.00%      2.67% # attempts to use FU when none available
system.cpu.iq.fu_full::SimdMultAcc                  0      0.00%      2.67% # attempts to use FU when none available
system.cpu.iq.fu_full::SimdShift                    0      0.00%      2.67% # attempts to use FU when none available
system.cpu.iq.fu_full::SimdShiftAcc                 0      0.00%      2.67% # attempts to use FU when none available
system.cpu.iq.fu_full::SimdDiv                      0      0.00%      2.67% # attempts to use FU when none available
system.cpu.iq.fu_full::SimdSqrt                     0      0.00%      2.67% # attempts to use FU when none available
system.cpu.iq.fu_full::SimdFloatAdd                 0      0.00%      2.67% # attempts to use FU when none available
system.cpu.iq.fu_full::SimdFloatAlu                 0      0.00%      2.67% # attempts to use FU when none available
system.cpu.iq.fu_full::SimdFloatCmp                 0      0.00%      2.67% # attempts to use FU when none available
system.cpu.iq.fu_full::SimdFloatCvt                 0      0.00%      2.67% # attempts to use FU when none available
system.cpu.iq.fu_full::SimdFloatDiv                 0      0.00%      2.67% # attempts to use FU when none available
system.cpu.iq.fu_full::SimdFloatMisc                0      0.00%      2.67% # attempts to use FU when none available
system.cpu.iq.fu_full::SimdFloatMult                0      0.00%      2.67% # attempts to use FU when none available
system.cpu.iq.fu_full::SimdFloatMultAcc             0      0.00%      2.67% # attempts to use FU when none available
system.cpu.iq.fu_full::SimdFloatSqrt                0      0.00%      2.67% # attempts to use FU when none available
system.cpu.iq.fu_full::SimdReduceAdd                0      0.00%      2.67% # attempts to use FU when none available
system.cpu.iq.fu_full::SimdReduceAlu                0      0.00%      2.67% # attempts to use FU when none available
system.cpu.iq.fu_full::SimdReduceCmp                0      0.00%      2.67% # attempts to use FU when none available
system.cpu.iq.fu_full::SimdFloatReduceAdd            0      0.00%      2.67% # attempts to use FU when none available
system.cpu.iq.fu_full::SimdFloatReduceCmp            0      0.00%      2.67% # attempts to use FU when none available
system.cpu.iq.fu_full::SimdAes                      0      0.00%      2.67% # attempts to use FU when none available
system.cpu.iq.fu_full::SimdAesMix                   0      0.00%      2.67% # attempts to use FU when none available
system.cpu.iq.fu_full::SimdSha1Hash                 0      0.00%      2.67% # attempts to use FU when none available
system.cpu.iq.fu_full::SimdSha1Hash2                0      0.00%      2.67% # attempts to use FU when none available
system.cpu.iq.fu_full::SimdSha256Hash               0      0.00%      2.67% # attempts to use FU when none available
system.cpu.iq.fu_full::SimdSha256Hash2              0      0.00%      2.67% # attempts to use FU when none available
system.cpu.iq.fu_full::SimdShaSigma2                0      0.00%      2.67% # attempts to use FU when none available
system.cpu.iq.fu_full::SimdShaSigma3                0      0.00%      2.67% # attempts to use FU when none available
system.cpu.iq.fu_full::SimdPredAlu                  0      0.00%      2.67% # attempts to use FU when none available
system.cpu.iq.fu_full::MemRead                 402365     97.33%     99.99% # attempts to use FU when none available
system.cpu.iq.fu_full::MemWrite                    27      0.01%    100.00% # attempts to use FU when none available
system.cpu.iq.fu_full::FloatMemRead                 1      0.00%    100.00% # attempts to use FU when none available
system.cpu.iq.fu_full::FloatMemWrite                5      0.00%    100.00% # attempts to use FU when none available
system.cpu.iq.fu_full::IprAccess                    0      0.00%    100.00% # attempts to use FU when none available
system.cpu.iq.fu_full::InstPrefetch                 0      0.00%    100.00% # attempts to use FU when none available
system.cpu.iq.int_alu_accesses               12676594                       # Number of integer alu accesses
system.cpu.iq.int_inst_queue_reads           56498328                       # Number of integer instruction queue reads
system.cpu.iq.int_inst_queue_wakeup_accesses      9514556                       # Number of integer instruction queue wakeup accesses
system.cpu.iq.int_inst_queue_writes           9530029                       # Number of integer instruction queue writes
system.cpu.iq.iqInstsAdded                    9519783                       # Number of instructions added to the IQ (excludes non-spec)
system.cpu.iq.iqInstsIssued                  12263895                       # Number of instructions issued
system.cpu.iq.iqNonSpecInstsAdded                  72                       # Number of non-speculative instructions added to the IQ
system.cpu.iq.iqSquashedInstsExamined           10900                       # Number of squashed instructions iterated over during squash; mainly for profiling
system.cpu.iq.iqSquashedInstsIssued                58                       # Number of squashed instructions issued
system.cpu.iq.iqSquashedNonSpecRemoved             64                       # Number of squashed non-spec instructions that were removed
system.cpu.iq.iqSquashedOperandsExamined        15095                       # Number of squashed operands that are examined and possibly removed from graph
system.cpu.iq.issued_per_cycle::samples      31557932                       # Number of insts issued each cycle
system.cpu.iq.issued_per_cycle::mean         0.388615                       # Number of insts issued each cycle
system.cpu.iq.issued_per_cycle::stdev        1.029153                       # Number of insts issued each cycle
system.cpu.iq.issued_per_cycle::underflows            0      0.00%      0.00% # Number of insts issued each cycle
system.cpu.iq.issued_per_cycle::0            25827929     81.84%     81.84% # Number of insts issued each cycle
system.cpu.iq.issued_per_cycle::1             2979611      9.44%     91.28% # Number of insts issued each cycle
system.cpu.iq.issued_per_cycle::2              860309      2.73%     94.01% # Number of insts issued each cycle
system.cpu.iq.issued_per_cycle::3              567592      1.80%     95.81% # Number of insts issued each cycle
system.cpu.iq.issued_per_cycle::4              927593      2.94%     98.75% # Number of insts issued each cycle
system.cpu.iq.issued_per_cycle::5              223646      0.71%     99.46% # Number of insts issued each cycle
system.cpu.iq.issued_per_cycle::6              167331      0.53%     99.99% # Number of insts issued each cycle
system.cpu.iq.issued_per_cycle::7                3066      0.01%    100.00% # Number of insts issued each cycle
system.cpu.iq.issued_per_cycle::8                 855      0.00%    100.00% # Number of insts issued each cycle
system.cpu.iq.issued_per_cycle::overflows            0      0.00%    100.00% # Number of insts issued each cycle
system.cpu.iq.issued_per_cycle::min_value            0                       # Number of insts issued each cycle
system.cpu.iq.issued_per_cycle::max_value            8                       # Number of insts issued each cycle
system.cpu.iq.issued_per_cycle::total        31557932                       # Number of insts issued each cycle
system.cpu.iq.rate                           0.388176                       # Inst issue rate
system.cpu.iq.vec_alu_accesses                      0                       # Number of vector alu accesses
system.cpu.iq.vec_inst_queue_reads                  0                       # Number of vector instruction queue reads
system.cpu.iq.vec_inst_queue_wakeup_accesses            0                       # Number of vector instruction queue wakeup accesses
system.cpu.iq.vec_inst_queue_writes                 0                       # Number of vector instruction queue writes
system.cpu.itb.rdAccesses                           0                       # TLB accesses on read requests
system.cpu.itb.rdMisses                             0                       # TLB misses on read requests
system.cpu.itb.wrAccesses                     1001914                       # TLB accesses on write requests
system.cpu.itb.wrMisses                            55                       # TLB misses on write requests
system.cpu.memDep0.conflictingLoads                42                       # Number of conflicting loads.
system.cpu.memDep0.conflictingStores               37                       # Number of conflicting stores.
system.cpu.memDep0.insertedLoads               502093                       # Number of loads inserted to the mem dependence unit.
system.cpu.memDep0.insertedStores                2042                       # Number of stores inserted to the mem dependence unit.
system.cpu.misc_regfile_reads                 4254598                       # number of misc regfile reads
system.cpu.misc_regfile_writes                      1                       # number of misc regfile writes
system.cpu.numCycles                         31593659                       # number of cpu cycles simulated
system.cpu.numWorkItemsCompleted                    0                       # number of work items this cpu completed
system.cpu.numWorkItemsStarted                      0                       # number of work items this cpu started
system.cpu.rename.BlockCycles                29005600                       # Number of cycles rename is blocking
system.cpu.rename.CommittedMaps              18009965                       # Number of HB maps that are committed
system.cpu.rename.IQFullEvents                     32                       # Number of times rename has blocked due to IQ full
system.cpu.rename.IdleCycles                   519521                       # Number of cycles rename is idle
system.cpu.rename.ROBFullEvents                945985                       # Number of times rename has blocked due to ROB full
system.cpu.rename.RenameLookups              20554734                       # Number of register rename lookups that rename has made
system.cpu.rename.RenamedInsts                9522592                       # Number of instructions processed by rename
system.cpu.rename.RenamedOperands            18024559                       # Number of destination operands rename has renamed
system.cpu.rename.RunCycles                    812937                       # Number of cycles rename is running
system.cpu.rename.SQFullEvents                   7460                       # Number of times rename has blocked due to SQ full
system.cpu.rename.SquashCycles                    514                       # Number of cycles rename is squashing
system.cpu.rename.UnblockCycles               1217766                       # Number of cycles rename is unblocking
system.cpu.rename.UndoneMaps                    14594                       # Number of HB maps that are undone due to squashing
system.cpu.rename.fp_rename_lookups               776                       # Number of floating rename lookups
system.cpu.rename.int_rename_lookups         14032424                       # Number of integer rename lookups
system.cpu.rename.serializeStallCycles           1594                       # count of cycles rename stalled for serializing inst
system.cpu.rename.serializingInsts                 22                       # count of serializing insts renamed
system.cpu.rename.skidInsts                   3915618                       # count of insts added to the skid buffer
system.cpu.rename.tempSerializingInsts             17                       # count of temporary serializing insts renamed
system.cpu.rob.rob_reads                     40041591                       # The number of ROB reads
system.cpu.rob.rob_writes                    19041570                       # The number of ROB writes
system.cpu.timesIdled                             196                       # Number of times that the entire CPU went into an idle state and unscheduled itself
system.cpu.workload.numSyscalls                     7                       # Number of system calls
system.l2bus.snoop_filter.hit_multi_requests            1                       # Number of requests hitting in the snoop filter with multiple (>1) holders of the requested data.
system.l2bus.snoop_filter.hit_multi_snoops            0                       # Number of snoops hitting in the snoop filter with multiple (>1) holders of the requested data.
system.l2bus.snoop_filter.hit_single_requests       481840                       # Number of requests hitting in the snoop filter with a single holder of the requested data.
system.l2bus.snoop_filter.hit_single_snoops          294                       # Number of snoops hitting in the snoop filter with a single holder of the requested data.
system.l2bus.snoop_filter.tot_requests         966046                       # Total number of requests made to the snoop filter.
system.l2bus.snoop_filter.tot_snoops              294                       # Total number of snoops made to the snoop filter.
system.membus.snoop_filter.hit_multi_requests            0                       # Number of requests hitting in the snoop filter with multiple (>1) holders of the requested data.
system.membus.snoop_filter.hit_multi_snoops            0                       # Number of snoops hitting in the snoop filter with multiple (>1) holders of the requested data.
system.membus.snoop_filter.hit_single_requests       337205                       # Number of requests hitting in the snoop filter with a single holder of the requested data.
system.membus.snoop_filter.hit_single_snoops            0                       # Number of snoops hitting in the snoop filter with a single holder of the requested data.
system.membus.snoop_filter.tot_requests        691090                       # Total number of requests made to the snoop filter.
system.membus.snoop_filter.tot_snoops               0                       # Total number of snoops made to the snoop filter.
system.membus.pwrStateResidencyTicks::UNDEFINED   7898414500                       # Cumulative time (in ticks) in various power states
system.membus.trans_dist::ReadResp             353791                       # Transaction distribution
system.membus.trans_dist::WritebackDirty          113                       # Transaction distribution
system.membus.trans_dist::CleanEvict           337092                       # Transaction distribution
system.membus.trans_dist::ReadExReq                92                       # Transaction distribution
system.membus.trans_dist::ReadExResp               92                       # Transaction distribution
system.membus.trans_dist::ReadSharedReq        353793                       # Transaction distribution
system.membus.pkt_count_system.l2cache.mem_side::system.mem_ctrl.port      1044973                       # Packet count per connected master and slave (bytes)
system.membus.pkt_count_system.l2cache.mem_side::total      1044973                       # Packet count per connected master and slave (bytes)
system.membus.pkt_count::total                1044973                       # Packet count per connected master and slave (bytes)
system.membus.pkt_size_system.l2cache.mem_side::system.mem_ctrl.port     22655744                       # Cumulative packet size per connected master and slave (bytes)
system.membus.pkt_size_system.l2cache.mem_side::total     22655744                       # Cumulative packet size per connected master and slave (bytes)
system.membus.pkt_size::total                22655744                       # Cumulative packet size per connected master and slave (bytes)
system.membus.snoops                                0                       # Total snoops (count)
system.membus.snoopTraffic                          0                       # Total snoop traffic (bytes)
system.membus.snoop_fanout::samples            353885                       # Request fanout histogram
system.membus.snoop_fanout::mean                    0                       # Request fanout histogram
system.membus.snoop_fanout::stdev                   0                       # Request fanout histogram
system.membus.snoop_fanout::underflows              0      0.00%      0.00% # Request fanout histogram
system.membus.snoop_fanout::0                  353885    100.00%    100.00% # Request fanout histogram
system.membus.snoop_fanout::1                       0      0.00%    100.00% # Request fanout histogram
system.membus.snoop_fanout::overflows               0      0.00%    100.00% # Request fanout histogram
system.membus.snoop_fanout::min_value               0                       # Request fanout histogram
system.membus.snoop_fanout::max_value               0                       # Request fanout histogram
system.membus.snoop_fanout::total              353885                       # Request fanout histogram
system.membus.reqLayer2.occupancy           172885500                       # Layer occupancy (ticks)
system.membus.reqLayer2.utilization               2.2                       # Layer utilization (%)
system.membus.respLayer0.occupancy          442353750                       # Layer occupancy (ticks)
system.membus.respLayer0.utilization              5.6                       # Layer utilization (%)
system.l2bus.pwrStateResidencyTicks::UNDEFINED   7898414500                       # Cumulative time (in ticks) in various power states
system.l2bus.trans_dist::ReadResp              484111                       # Transaction distribution
system.l2bus.trans_dist::WritebackDirty           226                       # Transaction distribution
system.l2bus.trans_dist::CleanEvict            819113                       # Transaction distribution
system.l2bus.trans_dist::ReadExReq                 92                       # Transaction distribution
system.l2bus.trans_dist::ReadExResp                92                       # Transaction distribution
system.l2bus.trans_dist::ReadSharedReq         484114                       # Transaction distribution
system.l2bus.pkt_count_system.cpu.icache.mem_side::system.l2cache.cpu_side          631                       # Packet count per connected master and slave (bytes)
system.l2bus.pkt_count_system.cpu.dcache.mem_side::system.l2cache.cpu_side      1449618                       # Packet count per connected master and slave (bytes)
system.l2bus.pkt_count::total                 1450249                       # Packet count per connected master and slave (bytes)
system.l2bus.pkt_size_system.cpu.icache.mem_side::system.l2cache.cpu_side        20160                       # Cumulative packet size per connected master and slave (bytes)
system.l2bus.pkt_size_system.cpu.dcache.mem_side::system.l2cache.cpu_side     30976064                       # Cumulative packet size per connected master and slave (bytes)
system.l2bus.pkt_size::total                 30996224                       # Cumulative packet size per connected master and slave (bytes)
system.l2bus.snoops                            337499                       # Total snoops (count)
system.l2bus.snoopTraffic                        7232                       # Total snoop traffic (bytes)
system.l2bus.snoop_fanout::samples             821705                       # Request fanout histogram
system.l2bus.snoop_fanout::mean              0.000359                       # Request fanout histogram
system.l2bus.snoop_fanout::stdev             0.018944                       # Request fanout histogram
system.l2bus.snoop_fanout::underflows               0      0.00%      0.00% # Request fanout histogram
system.l2bus.snoop_fanout::0                   821410     99.96%     99.96% # Request fanout histogram
system.l2bus.snoop_fanout::1                      295      0.04%    100.00% # Request fanout histogram
system.l2bus.snoop_fanout::2                        0      0.00%    100.00% # Request fanout histogram
system.l2bus.snoop_fanout::overflows                0      0.00%    100.00% # Request fanout histogram
system.l2bus.snoop_fanout::min_value                0                       # Request fanout histogram
system.l2bus.snoop_fanout::max_value                1                       # Request fanout histogram
system.l2bus.snoop_fanout::total               821705                       # Request fanout histogram
system.l2bus.respLayer1.occupancy           362916000                       # Layer occupancy (ticks)
system.l2bus.respLayer1.utilization               4.6                       # Layer utilization (%)
system.l2bus.reqLayer0.occupancy            241568000                       # Layer occupancy (ticks)
system.l2bus.reqLayer0.utilization                3.1                       # Layer utilization (%)
system.l2bus.respLayer0.occupancy              236250                       # Layer occupancy (ticks)
system.l2bus.respLayer0.utilization               0.0                       # Layer utilization (%)
system.clk_domain.clock                           250                       # Clock period in ticks
system.clk_domain.voltage_domain.voltage            1                       # Voltage in Volts
system.cpu.pwrStateResidencyTicks::ON      7898414500                       # Cumulative time (in ticks) in various power states
system.cpu.icache.pwrStateResidencyTicks::UNDEFINED   7898414500                       # Cumulative time (in ticks) in various power states
system.cpu.icache.demand_hits::.cpu.inst      1001452                       # number of demand (read+write) hits
system.cpu.icache.demand_hits::total          1001452                       # number of demand (read+write) hits
system.cpu.icache.overall_hits::.cpu.inst      1001452                       # number of overall hits
system.cpu.icache.overall_hits::total         1001452                       # number of overall hits
system.cpu.icache.demand_misses::.cpu.inst          435                       # number of demand (read+write) misses
system.cpu.icache.demand_misses::total            435                       # number of demand (read+write) misses
system.cpu.icache.overall_misses::.cpu.inst          435                       # number of overall misses
system.cpu.icache.overall_misses::total           435                       # number of overall misses
system.cpu.icache.demand_miss_latency::.cpu.inst     25581249                       # number of demand (read+write) miss cycles
system.cpu.icache.demand_miss_latency::total     25581249                       # number of demand (read+write) miss cycles
system.cpu.icache.overall_miss_latency::.cpu.inst     25581249                       # number of overall miss cycles
system.cpu.icache.overall_miss_latency::total     25581249                       # number of overall miss cycles
system.cpu.icache.demand_accesses::.cpu.inst      1001887                       # number of demand (read+write) accesses
system.cpu.icache.demand_accesses::total      1001887                       # number of demand (read+write) accesses
system.cpu.icache.overall_accesses::.cpu.inst      1001887                       # number of overall (read+write) accesses
system.cpu.icache.overall_accesses::total      1001887                       # number of overall (read+write) accesses
system.cpu.icache.demand_miss_rate::.cpu.inst     0.000434                       # miss rate for demand accesses
system.cpu.icache.demand_miss_rate::total     0.000434                       # miss rate for demand accesses
system.cpu.icache.overall_miss_rate::.cpu.inst     0.000434                       # miss rate for overall accesses
system.cpu.icache.overall_miss_rate::total     0.000434                       # miss rate for overall accesses
system.cpu.icache.demand_avg_miss_latency::.cpu.inst 58807.468966                       # average overall miss latency
system.cpu.icache.demand_avg_miss_latency::total 58807.468966                       # average overall miss latency
system.cpu.icache.overall_avg_miss_latency::.cpu.inst 58807.468966                       # average overall miss latency
system.cpu.icache.overall_avg_miss_latency::total 58807.468966                       # average overall miss latency
system.cpu.icache.blocked_cycles::no_mshrs          606                       # number of cycles access was blocked
system.cpu.icache.blocked_cycles::no_targets            0                       # number of cycles access was blocked
system.cpu.icache.blocked::no_mshrs                 5                       # number of cycles access was blocked
system.cpu.icache.blocked::no_targets               0                       # number of cycles access was blocked
system.cpu.icache.avg_blocked_cycles::no_mshrs   121.200000                       # average number of cycles each access was blocked
system.cpu.icache.avg_blocked_cycles::no_targets          nan                       # average number of cycles each access was blocked
system.cpu.icache.demand_mshr_hits::.cpu.inst          119                       # number of demand (read+write) MSHR hits
system.cpu.icache.demand_mshr_hits::total          119                       # number of demand (read+write) MSHR hits
system.cpu.icache.overall_mshr_hits::.cpu.inst          119                       # number of overall MSHR hits
system.cpu.icache.overall_mshr_hits::total          119                       # number of overall MSHR hits
system.cpu.icache.demand_mshr_misses::.cpu.inst          316                       # number of demand (read+write) MSHR misses
system.cpu.icache.demand_mshr_misses::total          316                       # number of demand (read+write) MSHR misses
system.cpu.icache.overall_mshr_misses::.cpu.inst          316                       # number of overall MSHR misses
system.cpu.icache.overall_mshr_misses::total          316                       # number of overall MSHR misses
system.cpu.icache.demand_mshr_miss_latency::.cpu.inst     19789249                       # number of demand (read+write) MSHR miss cycles
system.cpu.icache.demand_mshr_miss_latency::total     19789249                       # number of demand (read+write) MSHR miss cycles
system.cpu.icache.overall_mshr_miss_latency::.cpu.inst     19789249                       # number of overall MSHR miss cycles
system.cpu.icache.overall_mshr_miss_latency::total     19789249                       # number of overall MSHR miss cycles
system.cpu.icache.demand_mshr_miss_rate::.cpu.inst     0.000315                       # mshr miss rate for demand accesses
system.cpu.icache.demand_mshr_miss_rate::total     0.000315                       # mshr miss rate for demand accesses
system.cpu.icache.overall_mshr_miss_rate::.cpu.inst     0.000315                       # mshr miss rate for overall accesses
system.cpu.icache.overall_mshr_miss_rate::total     0.000315                       # mshr miss rate for overall accesses
system.cpu.icache.demand_avg_mshr_miss_latency::.cpu.inst 62624.205696                       # average overall mshr miss latency
system.cpu.icache.demand_avg_mshr_miss_latency::total 62624.205696                       # average overall mshr miss latency
system.cpu.icache.overall_avg_mshr_miss_latency::.cpu.inst 62624.205696                       # average overall mshr miss latency
system.cpu.icache.overall_avg_mshr_miss_latency::total 62624.205696                       # average overall mshr miss latency
system.cpu.icache.replacements                      0                       # number of replacements
system.cpu.icache.ReadReq_hits::.cpu.inst      1001452                       # number of ReadReq hits
system.cpu.icache.ReadReq_hits::total         1001452                       # number of ReadReq hits
system.cpu.icache.ReadReq_misses::.cpu.inst          435                       # number of ReadReq misses
system.cpu.icache.ReadReq_misses::total           435                       # number of ReadReq misses
system.cpu.icache.ReadReq_miss_latency::.cpu.inst     25581249                       # number of ReadReq miss cycles
system.cpu.icache.ReadReq_miss_latency::total     25581249                       # number of ReadReq miss cycles
system.cpu.icache.ReadReq_accesses::.cpu.inst      1001887                       # number of ReadReq accesses(hits+misses)
system.cpu.icache.ReadReq_accesses::total      1001887                       # number of ReadReq accesses(hits+misses)
system.cpu.icache.ReadReq_miss_rate::.cpu.inst     0.000434                       # miss rate for ReadReq accesses
system.cpu.icache.ReadReq_miss_rate::total     0.000434                       # miss rate for ReadReq accesses
system.cpu.icache.ReadReq_avg_miss_latency::.cpu.inst 58807.468966                       # average ReadReq miss latency
system.cpu.icache.ReadReq_avg_miss_latency::total 58807.468966                       # average ReadReq miss latency
system.cpu.icache.ReadReq_mshr_hits::.cpu.inst          119                       # number of ReadReq MSHR hits
system.cpu.icache.ReadReq_mshr_hits::total          119                       # number of ReadReq MSHR hits
system.cpu.icache.ReadReq_mshr_misses::.cpu.inst          316                       # number of ReadReq MSHR misses
system.cpu.icache.ReadReq_mshr_misses::total          316                       # number of ReadReq MSHR misses
system.cpu.icache.ReadReq_mshr_miss_latency::.cpu.inst     19789249                       # number of ReadReq MSHR miss cycles
system.cpu.icache.ReadReq_mshr_miss_latency::total     19789249                       # number of ReadReq MSHR miss cycles
system.cpu.icache.ReadReq_mshr_miss_rate::.cpu.inst     0.000315                       # mshr miss rate for ReadReq accesses
system.cpu.icache.ReadReq_mshr_miss_rate::total     0.000315                       # mshr miss rate for ReadReq accesses
system.cpu.icache.ReadReq_avg_mshr_miss_latency::.cpu.inst 62624.205696                       # average ReadReq mshr miss latency
system.cpu.icache.ReadReq_avg_mshr_miss_latency::total 62624.205696                       # average ReadReq mshr miss latency
system.cpu.icache.tags.pwrStateResidencyTicks::UNDEFINED   7898414500                       # Cumulative time (in ticks) in various power states
system.cpu.icache.tags.tagsinuse           293.694718                       # Cycle average of tags in use
system.cpu.icache.tags.total_refs             1001767                       # Total number of references to valid blocks.
system.cpu.icache.tags.sampled_refs               315                       # Sample count of references to valid blocks.
system.cpu.icache.tags.avg_refs           3180.212698                       # Average number of references to valid blocks.
system.cpu.icache.tags.warmup_cycle             74000                       # Cycle when the warmup percentage was hit.
system.cpu.icache.tags.occ_blocks::.cpu.inst   293.694718                       # Average occupied blocks per requestor
system.cpu.icache.tags.occ_percent::.cpu.inst     0.143406                       # Average percentage of cache occupancy
system.cpu.icache.tags.occ_percent::total     0.143406                       # Average percentage of cache occupancy
system.cpu.icache.tags.occ_task_id_blocks::1024          315                       # Occupied blocks per task id
system.cpu.icache.tags.age_task_id_blocks_1024::0           21                       # Occupied blocks per task id
system.cpu.icache.tags.age_task_id_blocks_1024::3          294                       # Occupied blocks per task id
system.cpu.icache.tags.occ_task_id_percent::1024     0.153809                       # Percentage of cache occupancy per task id
system.cpu.icache.tags.tag_accesses           2004089                       # Number of tag accesses
system.cpu.icache.tags.data_accesses          2004089                       # Number of data accesses
system.cpu.dtb.walker.pwrStateResidencyTicks::UNDEFINED   7898414500                       # Cumulative time (in ticks) in various power states
system.cpu.interrupts.clk_domain.clock           4000                       # Clock period in ticks
system.cpu.itb.walker.pwrStateResidencyTicks::UNDEFINED   7898414500                       # Cumulative time (in ticks) in various power states
system.cpu.dcache.pwrStateResidencyTicks::UNDEFINED   7898414500                       # Cumulative time (in ticks) in various power states
system.cpu.dcache.demand_hits::.cpu.data        18346                       # number of demand (read+write) hits
system.cpu.dcache.demand_hits::total            18346                       # number of demand (read+write) hits
system.cpu.dcache.overall_hits::.cpu.data        18346                       # number of overall hits
system.cpu.dcache.overall_hits::total           18346                       # number of overall hits
system.cpu.dcache.demand_misses::.cpu.data       484046                       # number of demand (read+write) misses
system.cpu.dcache.demand_misses::total         484046                       # number of demand (read+write) misses
system.cpu.dcache.overall_misses::.cpu.data       484046                       # number of overall misses
system.cpu.dcache.overall_misses::total        484046                       # number of overall misses
system.cpu.dcache.demand_miss_latency::.cpu.data  31527940250                       # number of demand (read+write) miss cycles
system.cpu.dcache.demand_miss_latency::total  31527940250                       # number of demand (read+write) miss cycles
system.cpu.dcache.overall_miss_latency::.cpu.data  31527940250                       # number of overall miss cycles
system.cpu.dcache.overall_miss_latency::total  31527940250                       # number of overall miss cycles
system.cpu.dcache.demand_accesses::.cpu.data       502392                       # number of demand (read+write) accesses
system.cpu.dcache.demand_accesses::total       502392                       # number of demand (read+write) accesses
system.cpu.dcache.overall_accesses::.cpu.data       502392                       # number of overall (read+write) accesses
system.cpu.dcache.overall_accesses::total       502392                       # number of overall (read+write) accesses
system.cpu.dcache.demand_miss_rate::.cpu.data     0.963483                       # miss rate for demand accesses
system.cpu.dcache.demand_miss_rate::total     0.963483                       # miss rate for demand accesses
system.cpu.dcache.overall_miss_rate::.cpu.data     0.963483                       # miss rate for overall accesses
system.cpu.dcache.overall_miss_rate::total     0.963483                       # miss rate for overall accesses
system.cpu.dcache.demand_avg_miss_latency::.cpu.data 65134.181979                       # average overall miss latency
system.cpu.dcache.demand_avg_miss_latency::total 65134.181979                       # average overall miss latency
system.cpu.dcache.overall_avg_miss_latency::.cpu.data 65134.181979                       # average overall miss latency
system.cpu.dcache.overall_avg_miss_latency::total 65134.181979                       # average overall miss latency
system.cpu.dcache.blocked_cycles::no_mshrs     30511823                       # number of cycles access was blocked
system.cpu.dcache.blocked_cycles::no_targets          132                       # number of cycles access was blocked
system.cpu.dcache.blocked::no_mshrs            483074                       # number of cycles access was blocked
system.cpu.dcache.blocked::no_targets               1                       # number of cycles access was blocked
system.cpu.dcache.avg_blocked_cycles::no_mshrs    63.161799                       # average number of cycles each access was blocked
system.cpu.dcache.avg_blocked_cycles::no_targets          132                       # average number of cycles each access was blocked
system.cpu.dcache.writebacks::.writebacks          113                       # number of writebacks
system.cpu.dcache.writebacks::total               113                       # number of writebacks
system.cpu.dcache.demand_mshr_hits::.cpu.data          156                       # number of demand (read+write) MSHR hits
system.cpu.dcache.demand_mshr_hits::total          156                       # number of demand (read+write) MSHR hits
system.cpu.dcache.overall_mshr_hits::.cpu.data          156                       # number of overall MSHR hits
system.cpu.dcache.overall_mshr_hits::total          156                       # number of overall MSHR hits
system.cpu.dcache.demand_mshr_misses::.cpu.data       483890                       # number of demand (read+write) MSHR misses
system.cpu.dcache.demand_mshr_misses::total       483890                       # number of demand (read+write) MSHR misses
system.cpu.dcache.overall_mshr_misses::.cpu.data       483890                       # number of overall MSHR misses
system.cpu.dcache.overall_mshr_misses::total       483890                       # number of overall MSHR misses
system.cpu.dcache.demand_mshr_miss_latency::.cpu.data  31279252000                       # number of demand (read+write) MSHR miss cycles
system.cpu.dcache.demand_mshr_miss_latency::total  31279252000                       # number of demand (read+write) MSHR miss cycles
system.cpu.dcache.overall_mshr_miss_latency::.cpu.data  31279252000                       # number of overall MSHR miss cycles
system.cpu.dcache.overall_mshr_miss_latency::total  31279252000                       # number of overall MSHR miss cycles
system.cpu.dcache.demand_mshr_miss_rate::.cpu.data     0.963172                       # mshr miss rate for demand accesses
system.cpu.dcache.demand_mshr_miss_rate::total     0.963172                       # mshr miss rate for demand accesses
system.cpu.dcache.overall_mshr_miss_rate::.cpu.data     0.963172                       # mshr miss rate for overall accesses
system.cpu.dcache.overall_mshr_miss_rate::total     0.963172                       # mshr miss rate for overall accesses
system.cpu.dcache.demand_avg_mshr_miss_latency::.cpu.data 64641.244911                       # average overall mshr miss latency
system.cpu.dcache.demand_avg_mshr_miss_latency::total 64641.244911                       # average overall mshr miss latency
system.cpu.dcache.overall_avg_mshr_miss_latency::.cpu.data 64641.244911                       # average overall mshr miss latency
system.cpu.dcache.overall_avg_mshr_miss_latency::total 64641.244911                       # average overall mshr miss latency
system.cpu.dcache.replacements                 481840                       # number of replacements
system.cpu.dcache.ReadReq_hits::.cpu.data        17421                       # number of ReadReq hits
system.cpu.dcache.ReadReq_hits::total           17421                       # number of ReadReq hits
system.cpu.dcache.ReadReq_misses::.cpu.data       483953                       # number of ReadReq misses
system.cpu.dcache.ReadReq_misses::total        483953                       # number of ReadReq misses
system.cpu.dcache.ReadReq_miss_latency::.cpu.data  31522238000                       # number of ReadReq miss cycles
system.cpu.dcache.ReadReq_miss_latency::total  31522238000                       # number of ReadReq miss cycles
system.cpu.dcache.ReadReq_accesses::.cpu.data       501374                       # number of ReadReq accesses(hits+misses)
system.cpu.dcache.ReadReq_accesses::total       501374                       # number of ReadReq accesses(hits+misses)
system.cpu.dcache.ReadReq_miss_rate::.cpu.data     0.965253                       # miss rate for ReadReq accesses
system.cpu.dcache.ReadReq_miss_rate::total     0.965253                       # miss rate for ReadReq accesses
system.cpu.dcache.ReadReq_avg_miss_latency::.cpu.data 65134.915994                       # average ReadReq miss latency
system.cpu.dcache.ReadReq_avg_miss_latency::total 65134.915994                       # average ReadReq miss latency
system.cpu.dcache.ReadReq_mshr_hits::.cpu.data          155                       # number of ReadReq MSHR hits
system.cpu.dcache.ReadReq_mshr_hits::total          155                       # number of ReadReq MSHR hits
system.cpu.dcache.ReadReq_mshr_misses::.cpu.data       483798                       # number of ReadReq MSHR misses
system.cpu.dcache.ReadReq_mshr_misses::total       483798                       # number of ReadReq MSHR misses
system.cpu.dcache.ReadReq_mshr_miss_latency::.cpu.data  31273656000                       # number of ReadReq MSHR miss cycles
system.cpu.dcache.ReadReq_mshr_miss_latency::total  31273656000                       # number of ReadReq MSHR miss cycles
system.cpu.dcache.ReadReq_mshr_miss_rate::.cpu.data     0.964944                       # mshr miss rate for ReadReq accesses
system.cpu.dcache.ReadReq_mshr_miss_rate::total     0.964944                       # mshr miss rate for ReadReq accesses
system.cpu.dcache.ReadReq_avg_mshr_miss_latency::.cpu.data 64641.970409                       # average ReadReq mshr miss latency
system.cpu.dcache.ReadReq_avg_mshr_miss_latency::total 64641.970409                       # average ReadReq mshr miss latency
system.cpu.dcache.WriteReq_hits::.cpu.data          925                       # number of WriteReq hits
system.cpu.dcache.WriteReq_hits::total            925                       # number of WriteReq hits
system.cpu.dcache.WriteReq_misses::.cpu.data           93                       # number of WriteReq misses
system.cpu.dcache.WriteReq_misses::total           93                       # number of WriteReq misses
system.cpu.dcache.WriteReq_miss_latency::.cpu.data      5702250                       # number of WriteReq miss cycles
system.cpu.dcache.WriteReq_miss_latency::total      5702250                       # number of WriteReq miss cycles
system.cpu.dcache.WriteReq_accesses::.cpu.data         1018                       # number of WriteReq accesses(hits+misses)
system.cpu.dcache.WriteReq_accesses::total         1018                       # number of WriteReq accesses(hits+misses)
system.cpu.dcache.WriteReq_miss_rate::.cpu.data     0.091356                       # miss rate for WriteReq accesses
system.cpu.dcache.WriteReq_miss_rate::total     0.091356                       # miss rate for WriteReq accesses
system.cpu.dcache.WriteReq_avg_miss_latency::.cpu.data 61314.516129                       # average WriteReq miss latency
system.cpu.dcache.WriteReq_avg_miss_latency::total 61314.516129                       # average WriteReq miss latency
system.cpu.dcache.WriteReq_mshr_hits::.cpu.data            1                       # number of WriteReq MSHR hits
system.cpu.dcache.WriteReq_mshr_hits::total            1                       # number of WriteReq MSHR hits
system.cpu.dcache.WriteReq_mshr_misses::.cpu.data           92                       # number of WriteReq MSHR misses
system.cpu.dcache.WriteReq_mshr_misses::total           92                       # number of WriteReq MSHR misses
system.cpu.dcache.WriteReq_mshr_miss_latency::.cpu.data      5596000                       # number of WriteReq MSHR miss cycles
system.cpu.dcache.WriteReq_mshr_miss_latency::total      5596000                       # number of WriteReq MSHR miss cycles
system.cpu.dcache.WriteReq_mshr_miss_rate::.cpu.data     0.090373                       # mshr miss rate for WriteReq accesses
system.cpu.dcache.WriteReq_mshr_miss_rate::total     0.090373                       # mshr miss rate for WriteReq accesses
system.cpu.dcache.WriteReq_avg_mshr_miss_latency::.cpu.data 60826.086957                       # average WriteReq mshr miss latency
system.cpu.dcache.WriteReq_avg_mshr_miss_latency::total 60826.086957                       # average WriteReq mshr miss latency
system.cpu.dcache.tags.pwrStateResidencyTicks::UNDEFINED   7898414500                       # Cumulative time (in ticks) in various power states
system.cpu.dcache.tags.tagsinuse          2036.463457                       # Cycle average of tags in use
system.cpu.dcache.tags.total_refs              502234                       # Total number of references to valid blocks.
system.cpu.dcache.tags.sampled_refs            483888                       # Sample count of references to valid blocks.
system.cpu.dcache.tags.avg_refs              1.037914                       # Average number of references to valid blocks.
system.cpu.dcache.tags.warmup_cycle            208500                       # Cycle when the warmup percentage was hit.
system.cpu.dcache.tags.occ_blocks::.cpu.data  2036.463457                       # Average occupied blocks per requestor
system.cpu.dcache.tags.occ_percent::.cpu.data     0.994367                       # Average percentage of cache occupancy
system.cpu.dcache.tags.occ_percent::total     0.994367                       # Average percentage of cache occupancy
system.cpu.dcache.tags.occ_task_id_blocks::1024         2048                       # Occupied blocks per task id
system.cpu.dcache.tags.age_task_id_blocks_1024::0          560                       # Occupied blocks per task id
system.cpu.dcache.tags.age_task_id_blocks_1024::1         1463                       # Occupied blocks per task id
system.cpu.dcache.tags.age_task_id_blocks_1024::2           25                       # Occupied blocks per task id
system.cpu.dcache.tags.occ_task_id_percent::1024            1                       # Percentage of cache occupancy per task id
system.cpu.dcache.tags.tag_accesses           1488672                       # Number of tag accesses
system.cpu.dcache.tags.data_accesses          1488672                       # Number of data accesses
system.l2cache.pwrStateResidencyTicks::UNDEFINED   7898414500                       # Cumulative time (in ticks) in various power states
system.l2cache.demand_hits::.cpu.inst               1                       # number of demand (read+write) hits
system.l2cache.demand_hits::.cpu.data          130319                       # number of demand (read+write) hits
system.l2cache.demand_hits::total              130320                       # number of demand (read+write) hits
system.l2cache.overall_hits::.cpu.inst              1                       # number of overall hits
system.l2cache.overall_hits::.cpu.data         130319                       # number of overall hits
system.l2cache.overall_hits::total             130320                       # number of overall hits
system.l2cache.demand_misses::.cpu.inst           315                       # number of demand (read+write) misses
system.l2cache.demand_misses::.cpu.data        353571                       # number of demand (read+write) misses
system.l2cache.demand_misses::total            353886                       # number of demand (read+write) misses
system.l2cache.overall_misses::.cpu.inst          315                       # number of overall misses
system.l2cache.overall_misses::.cpu.data       353571                       # number of overall misses
system.l2cache.overall_misses::total           353886                       # number of overall misses
system.l2cache.demand_miss_latency::.cpu.inst     19547000                       # number of demand (read+write) miss cycles
system.l2cache.demand_miss_latency::.cpu.data  30228732000                       # number of demand (read+write) miss cycles
system.l2cache.demand_miss_latency::total  30248279000                       # number of demand (read+write) miss cycles
system.l2cache.overall_miss_latency::.cpu.inst     19547000                       # number of overall miss cycles
system.l2cache.overall_miss_latency::.cpu.data  30228732000                       # number of overall miss cycles
system.l2cache.overall_miss_latency::total  30248279000                       # number of overall miss cycles
system.l2cache.demand_accesses::.cpu.inst          316                       # number of demand (read+write) accesses
[...]
system.mem_ctrl.rdQLenPdf::30                       0                       # What read queue length does an incoming req see
system.mem_ctrl.rdQLenPdf::31                       0                       # What read queue length does an incoming req see
system.mem_ctrl.wrQLenPdf::0                        1                       # What write queue length does an incoming req see
system.mem_ctrl.wrQLenPdf::1                        1                       # What write queue length does an incoming req see
system.mem_ctrl.wrQLenPdf::2                        1                       # What write queue length does an incoming req see
system.mem_ctrl.wrQLenPdf::3                        1                       # What write queue length does an incoming req see
system.mem_ctrl.wrQLenPdf::4                        1                       # What write queue length does an incoming req see
system.mem_ctrl.wrQLenPdf::5                        1                       # What write queue length does an incoming req see
system.mem_ctrl.wrQLenPdf::6                        1                       # What write queue length does an incoming req see
system.mem_ctrl.wrQLenPdf::7                        1                       # What write queue length does an incoming req see
system.mem_ctrl.wrQLenPdf::8                        1                       # What write queue length does an incoming req see
system.mem_ctrl.wrQLenPdf::9                        1                       # What write queue length does an incoming req see
system.mem_ctrl.wrQLenPdf::10                       1                       # What write queue length does an incoming req see
system.mem_ctrl.wrQLenPdf::11                       1                       # What write queue length does an incoming req see
system.mem_ctrl.wrQLenPdf::12                       1                       # What write queue length does an incoming req see
system.mem_ctrl.wrQLenPdf::13                       1                       # What write queue length does an incoming req see
system.mem_ctrl.wrQLenPdf::14                       1                       # What write queue length does an incoming req see
system.mem_ctrl.wrQLenPdf::15                       1                       # What write queue length does an incoming req see
system.mem_ctrl.wrQLenPdf::16                       1                       # What write queue length does an incoming req see
system.mem_ctrl.wrQLenPdf::17                       6                       # What write queue length does an incoming req see
system.mem_ctrl.wrQLenPdf::18                       6                       # What write queue length does an incoming req see
system.mem_ctrl.wrQLenPdf::19                       6                       # What write queue length does an incoming req see
system.mem_ctrl.wrQLenPdf::20                       6                       # What write queue length does an incoming req see
system.mem_ctrl.wrQLenPdf::21                       6                       # What write queue length does an incoming req see
system.mem_ctrl.wrQLenPdf::22                       6                       # What write queue length does an incoming req see
system.mem_ctrl.wrQLenPdf::23                       6                       # What write queue length does an incoming req see
system.mem_ctrl.wrQLenPdf::24                       6                       # What write queue length does an incoming req see
system.mem_ctrl.wrQLenPdf::25                       6                       # What write queue length does an incoming req see
system.mem_ctrl.wrQLenPdf::26                       6                       # What write queue length does an incoming req see
system.mem_ctrl.wrQLenPdf::27                       6                       # What write queue length does an incoming req see
system.mem_ctrl.wrQLenPdf::28                       6                       # What write queue length does an incoming req see
system.mem_ctrl.wrQLenPdf::29                       6                       # What write queue length does an incoming req see
system.mem_ctrl.wrQLenPdf::30                       6                       # What write queue length does an incoming req see
system.mem_ctrl.wrQLenPdf::31                       6                       # What write queue length does an incoming req see
system.mem_ctrl.wrQLenPdf::32                       6                       # What write queue length does an incoming req see
system.mem_ctrl.wrQLenPdf::33                       0                       # What write queue length does an incoming req see
system.mem_ctrl.wrQLenPdf::34                       0                       # What write queue length does an incoming req see
system.mem_ctrl.wrQLenPdf::35                       0                       # What write queue length does an incoming req see
system.mem_ctrl.wrQLenPdf::36                       0                       # What write queue length does an incoming req see
system.mem_ctrl.wrQLenPdf::37                       0                       # What write queue length does an incoming req see
system.mem_ctrl.wrQLenPdf::38                       0                       # What write queue length does an incoming req see
system.mem_ctrl.wrQLenPdf::39                       0                       # What write queue length does an incoming req see
system.mem_ctrl.wrQLenPdf::40                       0                       # What write queue length does an incoming req see
system.mem_ctrl.wrQLenPdf::41                       0                       # What write queue length does an incoming req see
system.mem_ctrl.wrQLenPdf::42                       0                       # What write queue length does an incoming req see
system.mem_ctrl.wrQLenPdf::43                       0                       # What write queue length does an incoming req see
system.mem_ctrl.wrQLenPdf::44                       0                       # What write queue length does an incoming req see
system.mem_ctrl.wrQLenPdf::45                       0                       # What write queue length does an incoming req see
system.mem_ctrl.wrQLenPdf::46                       0                       # What write queue length does an incoming req see
system.mem_ctrl.wrQLenPdf::47                       0                       # What write queue length does an incoming req see
system.mem_ctrl.wrQLenPdf::48                       0                       # What write queue length does an incoming req see
system.mem_ctrl.wrQLenPdf::49                       0                       # What write queue length does an incoming req see
system.mem_ctrl.wrQLenPdf::50                       0                       # What write queue length does an incoming req see
system.mem_ctrl.wrQLenPdf::51                       0                       # What write queue length does an incoming req see
system.mem_ctrl.wrQLenPdf::52                       0                       # What write queue length does an incoming req see
system.mem_ctrl.wrQLenPdf::53                       0                       # What write queue length does an incoming req see
system.mem_ctrl.wrQLenPdf::54                       0                       # What write queue length does an incoming req see
system.mem_ctrl.wrQLenPdf::55                       0                       # What write queue length does an incoming req see
system.mem_ctrl.wrQLenPdf::56                       0                       # What write queue length does an incoming req see
system.mem_ctrl.wrQLenPdf::57                       0                       # What write queue length does an incoming req see
system.mem_ctrl.wrQLenPdf::58                       0                       # What write queue length does an incoming req see
system.mem_ctrl.wrQLenPdf::59                       0                       # What write queue length does an incoming req see
system.mem_ctrl.wrQLenPdf::60                       0                       # What write queue length does an incoming req see
system.mem_ctrl.wrQLenPdf::61                       0                       # What write queue length does an incoming req see
system.mem_ctrl.wrQLenPdf::62                       0                       # What write queue length does an incoming req see
system.mem_ctrl.wrQLenPdf::63                       0                       # What write queue length does an incoming req see
system.mem_ctrl.bytesPerActivate::samples       333808                       # Bytes accessed per row activation
system.mem_ctrl.bytesPerActivate::mean      67.858122                       # Bytes accessed per row activation
system.mem_ctrl.bytesPerActivate::gmean     66.589818                       # Bytes accessed per row activation
system.mem_ctrl.bytesPerActivate::stdev     18.236114                       # Bytes accessed per row activation
system.mem_ctrl.bytesPerActivate::0-127        315707     94.58%     94.58% # Bytes accessed per row activation
system.mem_ctrl.bytesPerActivate::128-255        17839      5.34%     99.92% # Bytes accessed per row activation
system.mem_ctrl.bytesPerActivate::256-383          186      0.06%     99.98% # Bytes accessed per row activation
system.mem_ctrl.bytesPerActivate::384-511           50      0.01%     99.99% # Bytes accessed per row activation
system.mem_ctrl.bytesPerActivate::512-639            8      0.00%     99.99% # Bytes accessed per row activation
system.mem_ctrl.bytesPerActivate::640-767            3      0.00%    100.00% # Bytes accessed per row activation
system.mem_ctrl.bytesPerActivate::768-895            4      0.00%    100.00% # Bytes accessed per row activation
system.mem_ctrl.bytesPerActivate::896-1023            1      0.00%    100.00% # Bytes accessed per row activation
system.mem_ctrl.bytesPerActivate::1024-1151           10      0.00%    100.00% # Bytes accessed per row activation
system.mem_ctrl.bytesPerActivate::total        333808                       # Bytes accessed per row activation
system.mem_ctrl.rdPerTurnAround::samples            6                       # Reads before turning the bus around for writes
system.mem_ctrl.rdPerTurnAround::mean     4512.833333                       # Reads before turning the bus around for writes
system.mem_ctrl.rdPerTurnAround::gmean    2832.290286                       # Reads before turning the bus around for writes
system.mem_ctrl.rdPerTurnAround::stdev    5014.565122                       # Reads before turning the bus around for writes
system.mem_ctrl.rdPerTurnAround::1024-1535            3     50.00%     50.00% # Reads before turning the bus around for writes
system.mem_ctrl.rdPerTurnAround::3584-4095            1     16.67%     66.67% # Reads before turning the bus around for writes
system.mem_ctrl.rdPerTurnAround::5632-6143            1     16.67%     83.33% # Reads before turning the bus around for writes
system.mem_ctrl.rdPerTurnAround::13824-14335            1     16.67%    100.00% # Reads before turning the bus around for writes
system.mem_ctrl.rdPerTurnAround::total              6                       # Reads before turning the bus around for writes
system.mem_ctrl.wrPerTurnAround::samples            6                       # Writes before turning the bus around for reads
system.mem_ctrl.wrPerTurnAround::mean              16                       # Writes before turning the bus around for reads
system.mem_ctrl.wrPerTurnAround::gmean      16.000000                       # Writes before turning the bus around for reads
system.mem_ctrl.wrPerTurnAround::16                 6    100.00%    100.00% # Writes before turning the bus around for reads
system.mem_ctrl.wrPerTurnAround::total              6                       # Writes before turning the bus around for reads
system.mem_ctrl.bytesReadDRAM                22648640                       # Total number of bytes read from DRAM
system.mem_ctrl.bytesReadWrQ                        0                       # Total number of bytes read from write queue
system.mem_ctrl.bytesWritten                     6144                       # Total number of bytes written to DRAM
system.mem_ctrl.bytesReadSys                 22648640                       # Total read bytes from the system interface side
system.mem_ctrl.bytesWrittenSys                  7232                       # Total written bytes from the system interface side
system.mem_ctrl.avgRdBW                       2867.49                       # Average DRAM read bandwidth in MiByte/s
system.mem_ctrl.avgWrBW                          0.78                       # Average achieved write bandwidth in MiByte/s
system.mem_ctrl.avgRdBWSys                    2867.49                       # Average system read bandwidth in MiByte/s
system.mem_ctrl.avgWrBWSys                       0.92                       # Average system write bandwidth in MiByte/s
system.mem_ctrl.peakBW                       12800.00                       # Theoretical peak bandwidth in MiByte/s
system.mem_ctrl.busUtil                         22.41                       # Data bus utilization in percentage
system.mem_ctrl.busUtilRead                     22.40                       # Data bus utilization in percentage for reads
system.mem_ctrl.busUtilWrite                     0.01                       # Data bus utilization in percentage for writes
system.mem_ctrl.totGap                     7898401250                       # Total gap between requests
system.mem_ctrl.avgGap                       22311.99                       # Average gap between requests
system.mem_ctrl.masterReadBytes::.cpu.inst        20096                       # Per-master bytes read from memory
system.mem_ctrl.masterReadBytes::.cpu.data     22628544                       # Per-master bytes read from memory
system.mem_ctrl.masterWriteBytes::.writebacks         6144                       # Per-master bytes write to memory
system.mem_ctrl.masterReadRate::.cpu.inst 2544308.101328437682                       # Per-master bytes read from memory rate (Bytes/sec)
system.mem_ctrl.masterReadRate::.cpu.data 2864947642.340117931366                       # Per-master bytes read from memory rate (Bytes/sec)
system.mem_ctrl.masterWriteRate::.writebacks 777877.636074936367                       # Per-master bytes write to memory rate (Bytes/sec)
system.mem_ctrl.masterReadAccesses::.cpu.inst          314                       # Per-master read serviced memory accesses
system.mem_ctrl.masterReadAccesses::.cpu.data       353571                       # Per-master read serviced memory accesses
system.mem_ctrl.masterWriteAccesses::.writebacks          113                       # Per-master write serviced memory accesses
system.mem_ctrl.masterReadTotalLat::.cpu.inst      9263500                       # Per-master read total memory access latency
system.mem_ctrl.masterReadTotalLat::.cpu.data  18649415250                       # Per-master read total memory access latency
system.mem_ctrl.masterWriteTotalLat::.writebacks   7847763250                       # Per-master write total memory access latency
system.mem_ctrl.masterReadAvgLat::.cpu.inst     29501.59                       # Per-master read average memory access latency
system.mem_ctrl.masterReadAvgLat::.cpu.data     52745.88                       # Per-master read average memory access latency
system.mem_ctrl.masterWriteAvgLat::.writebacks  69449232.30                       # Per-master write average memory access latency
system.mem_ctrl.pageHitRate                      5.69                       # Row buffer hit rate, read and write combined
system.mem_ctrl.rank1.actEnergy            1194950400                       # Energy for activate commands per rank (pJ)
system.mem_ctrl.rank1.preEnergy             635100840                       # Energy for precharge commands per rank (pJ)
system.mem_ctrl.rank1.readEnergy           1266129060                       # Energy for read commands per rank (pJ)
system.mem_ctrl.rank1.writeEnergy              245340                       # Energy for write commands per rank (pJ)
system.mem_ctrl.rank1.refreshEnergy      623244960.000000                       # Energy for refresh commands per rank (pJ)
system.mem_ctrl.rank1.actBackEnergy        3584787570                       # Energy for active background per rank (pJ)
system.mem_ctrl.rank1.preBackEnergy          14222880                       # Energy for precharge background per rank (pJ)
system.mem_ctrl.rank1.actPowerDownEnergy            0                       # Energy for active power-down per rank (pJ)
system.mem_ctrl.rank1.prePowerDownEnergy            0                       # Energy for precharge power-down per rank (pJ)
system.mem_ctrl.rank1.selfRefreshEnergy             0                       # Energy for self refresh per rank (pJ)
system.mem_ctrl.rank1.totalEnergy          7318681050                       # Total energy per rank (pJ)
system.mem_ctrl.rank1.averagePower         926.601288                       # Core power per rank (mW)
system.mem_ctrl.rank1.totalIdleTime                 0                       # Total Idle time Per DRAM Rank
system.mem_ctrl.rank1.memoryStateTime::IDLE      7134250                       # Time in different power states
system.mem_ctrl.rank1.memoryStateTime::REF    263640000                       # Time in different power states
system.mem_ctrl.rank1.memoryStateTime::SREF            0                       # Time in different power states
system.mem_ctrl.rank1.memoryStateTime::PRE_PDN            0                       # Time in different power states
system.mem_ctrl.rank1.memoryStateTime::ACT   7627640250                       # Time in different power states
system.mem_ctrl.rank1.memoryStateTime::ACT_PDN            0                       # Time in different power states
system.mem_ctrl.rank0.actEnergy            1188552960                       # Energy for activate commands per rank (pJ)
system.mem_ctrl.rank0.preEnergy             631700520                       # Energy for precharge commands per rank (pJ)
system.mem_ctrl.rank0.readEnergy           1260602700                       # Energy for read commands per rank (pJ)
system.mem_ctrl.rank0.writeEnergy              255780                       # Energy for write commands per rank (pJ)
system.mem_ctrl.rank0.refreshEnergy      623244960.000000                       # Energy for refresh commands per rank (pJ)
system.mem_ctrl.rank0.actBackEnergy        3585251550                       # Energy for active background per rank (pJ)
system.mem_ctrl.rank0.preBackEnergy          13832160                       # Energy for precharge background per rank (pJ)
system.mem_ctrl.rank0.actPowerDownEnergy            0                       # Energy for active power-down per rank (pJ)
system.mem_ctrl.rank0.prePowerDownEnergy            0                       # Energy for precharge power-down per rank (pJ)
system.mem_ctrl.rank0.selfRefreshEnergy             0                       # Energy for self refresh per rank (pJ)
system.mem_ctrl.rank0.totalEnergy          7303440630                       # Total energy per rank (pJ)
system.mem_ctrl.rank0.averagePower         924.671734                       # Core power per rank (mW)
system.mem_ctrl.rank0.totalIdleTime                 0                       # Total Idle time Per DRAM Rank
system.mem_ctrl.rank0.memoryStateTime::IDLE      6287750                       # Time in different power states
system.mem_ctrl.rank0.memoryStateTime::REF    263640000                       # Time in different power states
system.mem_ctrl.rank0.memoryStateTime::SREF            0                       # Time in different power states
system.mem_ctrl.rank0.memoryStateTime::PRE_PDN            0                       # Time in different power states
system.mem_ctrl.rank0.memoryStateTime::ACT   7628486750                       # Time in different power states
system.mem_ctrl.rank0.memoryStateTime::ACT_PDN            0                       # Time in different power states

---------- End Simulation Statistics   ----------
