
---------- Begin Simulation Statistics ----------
final_tick                                80321201000                       # Number of ticks from beginning of simulation (restored from checkpoints and never reset)
host_inst_rate                                 115734                       # Simulator instruction rate (inst/s)
host_mem_usage                                 800212                       # Number of bytes of host memory used
host_op_rate                                   230477                       # Simulator op (including micro ops) rate (op/s)
host_seconds                                    96.63                       # Real time elapsed on the host
host_tick_rate                              831256723                       # Simulator tick rate (ticks/s)
sim_freq                                 1000000000000                       # Frequency of simulated ticks
sim_insts                                    11182922                       # Number of instructions simulated
sim_ops                                      22270119                       # Number of ops (including micro ops) simulated
sim_seconds                                  0.080321                       # Number of seconds simulated
sim_ticks                                 80321201000                       # Number of ticks simulated
system.cpu.branchPred.BTBCorrect                    0                       # Number of correct BTB predictions (this stat may not work properly.
system.cpu.branchPred.BTBHitPct              0.000000                       # BTB Hit Percentage
system.cpu.branchPred.BTBHits                       0                       # Number of BTB hits
system.cpu.branchPred.BTBLookups                    7                       # Number of BTB lookups
system.cpu.branchPred.RASInCorrect                  0                       # Number of incorrect RAS predictions.
system.cpu.branchPred.condIncorrect                 6                       # Number of conditional branches incorrect
system.cpu.branchPred.condPredicted                13                       # Number of conditional branches predicted
system.cpu.branchPred.indirectHits                  0                       # Number of indirect target hits.
system.cpu.branchPred.indirectLookups               7                       # Number of indirect predictor lookups.
system.cpu.branchPred.indirectMisses                7                       # Number of indirect misses.
system.cpu.branchPred.lookups                      13                       # Number of BP lookups
system.cpu.branchPred.usedRAS                       0                       # Number of times the RAS was used to get a target.
system.cpu.branchPredindirectMispredicted            0                       # Number of mispredicted indirect branches.
system.cpu.committedInsts                    11182922                       # Number of instructions committed
system.cpu.committedOps                      22270119                       # Number of ops (including micro ops) committed
system.cpu.cpi                               7.182488                       # CPI: cycles per instruction
system.cpu.discardedOps                       4085423                       # Number of ops (including micro ops) which were discarded before commit
system.cpu.dtb.rdAccesses                     6438085                       # TLB accesses on read requests
system.cpu.dtb.rdMisses                        126699                       # TLB misses on read requests
system.cpu.dtb.wrAccesses                       26254                       # TLB accesses on write requests
system.cpu.dtb.wrMisses                           563                       # TLB misses on write requests
system.cpu.fetch2.amo_instructions                  0                       # Number of memory atomic instructions successfully decoded
system.cpu.fetch2.fp_instructions                   0                       # Number of floating point instructions successfully decoded
system.cpu.fetch2.int_instructions                  8                       # Number of integer instructions successfully decoded
system.cpu.fetch2.load_instructions                 0                       # Number of memory load instructions successfully decoded
system.cpu.fetch2.store_instructions                0                       # Number of memory store instructions successfully decoded
system.cpu.fetch2.vec_instructions                  0                       # Number of SIMD instructions successfully decoded
system.cpu.idleCycles                        39880346                       # Total number of cycles that the object has spent stopped
system.cpu.ipc                               0.139228                       # IPC: instructions per cycle
system.cpu.itb.rdAccesses                           0                       # TLB accesses on read requests
system.cpu.itb.rdMisses                             0                       # TLB misses on read requests
system.cpu.itb.wrAccesses                     4699499                       # TLB accesses on write requests
system.cpu.itb.wrMisses                            30                       # TLB misses on write requests
system.cpu.numCycles                         80321201                       # number of cpu cycles simulated
system.cpu.numFetchSuspends                         0                       # Number of times Execute suspended instruction fetching
system.cpu.numWorkItemsCompleted                    0                       # number of work items this cpu completed
system.cpu.numWorkItemsStarted                      0                       # number of work items this cpu started
system.cpu.op_class_0::No_OpClass                  43      0.00%      0.00% # Class of committed instruction
system.cpu.op_class_0::IntAlu                11308978     50.78%     50.78% # Class of committed instruction
system.cpu.op_class_0::IntMult                      5      0.00%     50.78% # Class of committed instruction
system.cpu.op_class_0::IntDiv                      21      0.00%     50.78% # Class of committed instruction
system.cpu.op_class_0::FloatAdd               3096086     13.90%     64.68% # Class of committed instruction
system.cpu.op_class_0::FloatCmp                     0      0.00%     64.68% # Class of committed instruction
system.cpu.op_class_0::FloatCvt                     0      0.00%     64.68% # Class of committed instruction
system.cpu.op_class_0::FloatMult                    0      0.00%     64.68% # Class of committed instruction
system.cpu.op_class_0::FloatMultAcc                 0      0.00%     64.68% # Class of committed instruction
system.cpu.op_class_0::FloatDiv                     0      0.00%     64.68% # Class of committed instruction
system.cpu.op_class_0::FloatMisc                    0      0.00%     64.68% # Class of committed instruction
system.cpu.op_class_0::FloatSqrt                    0      0.00%     64.68% # Class of committed instruction
system.cpu.op_class_0::SimdAdd                      0      0.00%     64.68% # Class of committed instruction
system.cpu.op_class_0::SimdAddAcc                   0      0.00%     64.68% # Class of committed instruction
system.cpu.op_class_0::SimdAlu                     44      0.00%     64.68% # Class of committed instruction
system.cpu.op_class_0::SimdCmp                      0      0.00%     64.68% # Class of committed instruction
system.cpu.op_class_0::SimdCvt                     30      0.00%     64.68% # Class of committed instruction
system.cpu.op_class_0::SimdMisc                    44      0.00%     64.68% # Class of committed instruction
system.cpu.op_class_0::SimdMult                     0      0.00%     64.68% # Class of committed instruction
system.cpu.op_class_0::SimdMultAcc                  0      0.00%     64.68% # Class of committed instruction
system.cpu.op_class_0::SimdShift                    0      0.00%     64.68% # Class of committed instruction
system.cpu.op_class_0::SimdShiftAcc                 0      0.00%     64.68% # Class of committed instruction
system.cpu.op_class_0::SimdDiv                      0      0.00%     64.68% # Class of committed instruction
system.cpu.op_class_0::SimdSqrt                     0      0.00%     64.68% # Class of committed instruction
system.cpu.op_class_0::SimdFloatAdd           1572618      7.06%     71.75% # Class of committed instruction
system.cpu.op_class_0::SimdFloatAlu                 0      0.00%     71.75% # Class of committed instruction
system.cpu.op_class_0::SimdFloatCmp                 0      0.00%     71.75% # Class of committed instruction
system.cpu.op_class_0::SimdFloatCvt                 0      0.00%     71.75% # Class of committed instruction
system.cpu.op_class_0::SimdFloatDiv                 0      0.00%     71.75% # Class of committed instruction
system.cpu.op_class_0::SimdFloatMisc                0      0.00%     71.75% # Class of committed instruction
system.cpu.op_class_0::SimdFloatMult          1548042      6.95%     78.70% # Class of committed instruction
system.cpu.op_class_0::SimdFloatMultAcc             0      0.00%     78.70% # Class of committed instruction
system.cpu.op_class_0::SimdFloatSqrt                0      0.00%     78.70% # Class of committed instruction
system.cpu.op_class_0::SimdReduceAdd                0      0.00%     78.70% # Class of committed instruction
system.cpu.op_class_0::SimdReduceAlu                0      0.00%     78.70% # Class of committed instruction
system.cpu.op_class_0::SimdReduceCmp                0      0.00%     78.70% # Class of committed instruction
system.cpu.op_class_0::SimdFloatReduceAdd            0      0.00%     78.70% # Class of committed instruction
system.cpu.op_class_0::SimdFloatReduceCmp            0      0.00%     78.70% # Class of committed instruction
system.cpu.op_class_0::SimdAes                      0      0.00%     78.70% # Class of committed instruction
system.cpu.op_class_0::SimdAesMix                   0      0.00%     78.70% # Class of committed instruction
system.cpu.op_class_0::SimdSha1Hash                 0      0.00%     78.70% # Class of committed instruction
system.cpu.op_class_0::SimdSha1Hash2                0      0.00%     78.70% # Class of committed instruction
system.cpu.op_class_0::SimdSha256Hash               0      0.00%     78.70% # Class of committed instruction
system.cpu.op_class_0::SimdSha256Hash2              0      0.00%     78.70% # Class of committed instruction
system.cpu.op_class_0::SimdShaSigma2                0      0.00%     78.70% # Class of committed instruction
system.cpu.op_class_0::SimdShaSigma3                0      0.00%     78.70% # Class of committed instruction
system.cpu.op_class_0::SimdPredAlu                  0      0.00%     78.70% # Class of committed instruction
system.cpu.op_class_0::MemRead                1597932      7.18%     85.87% # Class of committed instruction
system.cpu.op_class_0::MemWrite                   862      0.00%     85.88% # Class of committed instruction
system.cpu.op_class_0::FloatMemRead           3120686     14.01%     99.89% # Class of committed instruction
system.cpu.op_class_0::FloatMemWrite            24728      0.11%    100.00% # Class of committed instruction
system.cpu.op_class_0::IprAccess                    0      0.00%    100.00% # Class of committed instruction
system.cpu.op_class_0::InstPrefetch                 0      0.00%    100.00% # Class of committed instruction
system.cpu.op_class_0::total                 22270119                       # Class of committed instruction
system.cpu.tickCycles                        40440855                       # Number of cycles that the object actually ticked
system.cpu.workload.numSyscalls                     7                       # Number of system calls
system.l2bus.snoop_filter.hit_multi_requests            1                       # Number of requests hitting in the snoop filter with multiple (>1) holders of the requested data.
system.l2bus.snoop_filter.hit_multi_snoops            0                       # Number of snoops hitting in the snoop filter with multiple (>1) holders of the requested data.
system.l2bus.snoop_filter.hit_single_requests      1134445                       # Number of requests hitting in the snoop filter with a single holder of the requested data.
system.l2bus.snoop_filter.hit_single_snoops          341                       # Number of snoops hitting in the snoop filter with a single holder of the requested data.
system.l2bus.snoop_filter.tot_requests        2271304                       # Total number of requests made to the snoop filter.
system.l2bus.snoop_filter.tot_snoops              341                       # Total number of snoops made to the snoop filter.
system.membus.snoop_filter.hit_multi_requests            0                       # Number of requests hitting in the snoop filter with multiple (>1) holders of the requested data.
system.membus.snoop_filter.hit_multi_snoops            0                       # Number of snoops hitting in the snoop filter with multiple (>1) holders of the requested data.
system.membus.snoop_filter.hit_single_requests       184490                       # Number of requests hitting in the snoop filter with a single holder of the requested data.
system.membus.snoop_filter.hit_single_snoops            0                       # Number of snoops hitting in the snoop filter with a single holder of the requested data.
system.membus.snoop_filter.tot_requests        385705                       # Total number of requests made to the snoop filter.
system.membus.snoop_filter.tot_snoops               0                       # Total number of snoops made to the snoop filter.
system.membus.pwrStateResidencyTicks::UNDEFINED  80321201000                       # Cumulative time (in ticks) in various power states
system.membus.trans_dist::ReadResp             201122                       # Transaction distribution
system.membus.trans_dist::WritebackDirty         1553                       # Transaction distribution
system.membus.trans_dist::CleanEvict           182937                       # Transaction distribution
system.membus.trans_dist::ReadExReq                93                       # Transaction distribution
system.membus.trans_dist::ReadExResp               93                       # Transaction distribution
system.membus.trans_dist::ReadSharedReq        201122                       # Transaction distribution
system.membus.pkt_count_system.l2cache.mem_side::system.mem_ctrl.port       586920                       # Packet count per connected master and slave (bytes)
system.membus.pkt_count_system.l2cache.mem_side::total       586920                       # Packet count per connected master and slave (bytes)
system.membus.pkt_count::total                 586920                       # Packet count per connected master and slave (bytes)
system.membus.pkt_size_system.l2cache.mem_side::system.mem_ctrl.port     12977152                       # Cumulative packet size per connected master and slave (bytes)
system.membus.pkt_size_system.l2cache.mem_side::total     12977152                       # Cumulative packet size per connected master and slave (bytes)
system.membus.pkt_size::total                12977152                       # Cumulative packet size per connected master and slave (bytes)
system.membus.snoops                                0                       # Total snoops (count)
system.membus.snoopTraffic                          0                       # Total snoop traffic (bytes)
system.membus.snoop_fanout::samples            201215                       # Request fanout histogram
system.membus.snoop_fanout::mean                    0                       # Request fanout histogram
system.membus.snoop_fanout::stdev                   0                       # Request fanout histogram
system.membus.snoop_fanout::underflows              0      0.00%      0.00% # Request fanout histogram
system.membus.snoop_fanout::0                  201215    100.00%    100.00% # Request fanout histogram
system.membus.snoop_fanout::1                       0      0.00%    100.00% # Request fanout histogram
system.membus.snoop_fanout::overflows               0      0.00%    100.00% # Request fanout histogram
system.membus.snoop_fanout::min_value               0                       # Request fanout histogram
system.membus.snoop_fanout::max_value               0                       # Request fanout histogram
system.membus.snoop_fanout::total              201215                       # Request fanout histogram
system.membus.reqLayer2.occupancy           391917000                       # Layer occupancy (ticks)
system.membus.reqLayer2.utilization               0.5                       # Layer utilization (%)
system.membus.respLayer0.occupancy         1006098000                       # Layer occupancy (ticks)
system.membus.respLayer0.utilization              1.3                       # Layer utilization (%)
system.l2bus.pwrStateResidencyTicks::UNDEFINED  80321201000                       # Cumulative time (in ticks) in various power states
system.l2bus.trans_dist::ReadResp             1136765                       # Transaction distribution
system.l2bus.trans_dist::WritebackDirty          3205                       # Transaction distribution
system.l2bus.trans_dist::CleanEvict           1316071                       # Transaction distribution
system.l2bus.trans_dist::ReadExReq                 93                       # Transaction distribution
system.l2bus.trans_dist::ReadExResp                93                       # Transaction distribution
system.l2bus.trans_dist::ReadSharedReq        1136766                       # Transaction distribution
system.l2bus.pkt_count_system.cpu.icache.mem_side::system.l2cache.cpu_side          731                       # Packet count per connected master and slave (bytes)
system.l2bus.pkt_count_system.cpu.dcache.mem_side::system.l2cache.cpu_side      3407431                       # Packet count per connected master and slave (bytes)
system.l2bus.pkt_count::total                 3408162                       # Packet count per connected master and slave (bytes)
system.l2bus.pkt_size_system.cpu.icache.mem_side::system.l2cache.cpu_side        23360                       # Cumulative packet size per connected master and slave (bytes)
system.l2bus.pkt_size_system.cpu.dcache.mem_side::system.l2cache.cpu_side     72841280                       # Cumulative packet size per connected master and slave (bytes)
system.l2bus.pkt_size::total                 72864640                       # Cumulative packet size per connected master and slave (bytes)
system.l2bus.snoops                            184831                       # Total snoops (count)
system.l2bus.snoopTraffic                       99392                       # Total snoop traffic (bytes)
system.l2bus.snoop_fanout::samples            1321690                       # Request fanout histogram
system.l2bus.snoop_fanout::mean              0.000259                       # Request fanout histogram
system.l2bus.snoop_fanout::stdev             0.016084                       # Request fanout histogram
system.l2bus.snoop_fanout::underflows               0      0.00%      0.00% # Request fanout histogram
system.l2bus.snoop_fanout::0                  1321348     99.97%     99.97% # Request fanout histogram
system.l2bus.snoop_fanout::1                      342      0.03%    100.00% # Request fanout histogram
system.l2bus.snoop_fanout::2                        0      0.00%    100.00% # Request fanout histogram
system.l2bus.snoop_fanout::overflows                0      0.00%    100.00% # Request fanout histogram
system.l2bus.snoop_fanout::min_value                0                       # Request fanout histogram
system.l2bus.snoop_fanout::max_value                1                       # Request fanout histogram
system.l2bus.snoop_fanout::total              1321690                       # Request fanout histogram
system.l2bus.respLayer1.occupancy          3409479000                       # Layer occupancy (ticks)
system.l2bus.respLayer1.utilization               4.2                       # Layer utilization (%)
system.l2bus.reqLayer0.occupancy           2274608000                       # Layer occupancy (ticks)
system.l2bus.reqLayer0.utilization                2.8                       # Layer utilization (%)
system.l2bus.respLayer0.occupancy             1095000                       # Layer occupancy (ticks)
system.l2bus.respLayer0.utilization               0.0                       # Layer utilization (%)
system.clk_domain.clock                          1000                       # Clock period in ticks
system.clk_domain.voltage_domain.voltage            1                       # Voltage in Volts
system.cpu.pwrStateResidencyTicks::ON     80321201000                       # Cumulative time (in ticks) in various power states
system.cpu.icache.pwrStateResidencyTicks::UNDEFINED  80321201000                       # Cumulative time (in ticks) in various power states
system.cpu.icache.demand_hits::.cpu.inst      4699133                       # number of demand (read+write) hits
system.cpu.icache.demand_hits::total          4699133                       # number of demand (read+write) hits
system.cpu.icache.overall_hits::.cpu.inst      4699133                       # number of overall hits
system.cpu.icache.overall_hits::total         4699133                       # number of overall hits
system.cpu.icache.demand_misses::.cpu.inst          366                       # number of demand (read+write) misses
system.cpu.icache.demand_misses::total            366                       # number of demand (read+write) misses
system.cpu.icache.overall_misses::.cpu.inst          366                       # number of overall misses
system.cpu.icache.overall_misses::total           366                       # number of overall misses
system.cpu.icache.demand_miss_latency::.cpu.inst     40497000                       # number of demand (read+write) miss cycles
system.cpu.icache.demand_miss_latency::total     40497000                       # number of demand (read+write) miss cycles
system.cpu.icache.overall_miss_latency::.cpu.inst     40497000                       # number of overall miss cycles
system.cpu.icache.overall_miss_latency::total     40497000                       # number of overall miss cycles
system.cpu.icache.demand_accesses::.cpu.inst      4699499                       # number of demand (read+write) accesses
system.cpu.icache.demand_accesses::total      4699499                       # number of demand (read+write) accesses
system.cpu.icache.overall_accesses::.cpu.inst      4699499                       # number of overall (read+write) accesses
system.cpu.icache.overall_accesses::total      4699499                       # number of overall (read+write) accesses
system.cpu.icache.demand_miss_rate::.cpu.inst     0.000078                       # miss rate for demand accesses
system.cpu.icache.demand_miss_rate::total     0.000078                       # miss rate for demand accesses
system.cpu.icache.overall_miss_rate::.cpu.inst     0.000078                       # miss rate for overall accesses
system.cpu.icache.overall_miss_rate::total     0.000078                       # miss rate for overall accesses
system.cpu.icache.demand_avg_miss_latency::.cpu.inst 110647.540984                       # average overall miss latency
system.cpu.icache.demand_avg_miss_latency::total 110647.540984                       # average overall miss latency
system.cpu.icache.overall_avg_miss_latency::.cpu.inst 110647.540984                       # average overall miss latency
system.cpu.icache.overall_avg_miss_latency::total 110647.540984                       # average overall miss latency
system.cpu.icache.blocked_cycles::no_mshrs            0                       # number of cycles access was blocked
system.cpu.icache.blocked_cycles::no_targets            0                       # number of cycles access was blocked
system.cpu.icache.blocked::no_mshrs                 0                       # number of cycles access was blocked
system.cpu.icache.blocked::no_targets               0                       # number of cycles access was blocked
system.cpu.icache.avg_blocked_cycles::no_mshrs          nan                       # average number of cycles each access was blocked
system.cpu.icache.avg_blocked_cycles::no_targets          nan                       # average number of cycles each access was blocked
system.cpu.icache.demand_mshr_misses::.cpu.inst          366                       # number of demand (read+write) MSHR misses
system.cpu.icache.demand_mshr_misses::total          366                       # number of demand (read+write) MSHR misses
system.cpu.icache.overall_mshr_misses::.cpu.inst          366                       # number of overall MSHR misses
system.cpu.icache.overall_mshr_misses::total          366                       # number of overall MSHR misses
system.cpu.icache.demand_mshr_miss_latency::.cpu.inst     39767000                       # number of demand (read+write) MSHR miss cycles
system.cpu.icache.demand_mshr_miss_latency::total     39767000                       # number of demand (read+write) MSHR miss cycles
system.cpu.icache.overall_mshr_miss_latency::.cpu.inst     39767000                       # number of overall MSHR miss cycles
system.cpu.icache.overall_mshr_miss_latency::total     39767000                       # number of overall MSHR miss cycles
system.cpu.icache.demand_mshr_miss_rate::.cpu.inst     0.000078                       # mshr miss rate for demand accesses
system.cpu.icache.demand_mshr_miss_rate::total     0.000078                       # mshr miss rate for demand accesses
system.cpu.icache.overall_mshr_miss_rate::.cpu.inst     0.000078                       # mshr miss rate for overall accesses
system.cpu.icache.overall_mshr_miss_rate::total     0.000078                       # mshr miss rate for overall accesses
system.cpu.icache.demand_avg_mshr_miss_latency::.cpu.inst 108653.005464                       # average overall mshr miss latency
system.cpu.icache.demand_avg_mshr_miss_latency::total 108653.005464                       # average overall mshr miss latency
system.cpu.icache.overall_avg_mshr_miss_latency::.cpu.inst 108653.005464                       # average overall mshr miss latency
system.cpu.icache.overall_avg_mshr_miss_latency::total 108653.005464                       # average overall mshr miss latency
system.cpu.icache.replacements                      0                       # number of replacements
system.cpu.icache.ReadReq_hits::.cpu.inst      4699133                       # number of ReadReq hits
system.cpu.icache.ReadReq_hits::total         4699133                       # number of ReadReq hits
system.cpu.icache.ReadReq_misses::.cpu.inst          366                       # number of ReadReq misses
system.cpu.icache.ReadReq_misses::total           366                       # number of ReadReq misses
system.cpu.icache.ReadReq_miss_latency::.cpu.inst     40497000                       # number of ReadReq miss cycles
system.cpu.icache.ReadReq_miss_latency::total     40497000                       # number of ReadReq miss cycles
system.cpu.icache.ReadReq_accesses::.cpu.inst      4699499                       # number of ReadReq accesses(hits+misses)
system.cpu.icache.ReadReq_accesses::total      4699499                       # number of ReadReq accesses(hits+misses)
system.cpu.icache.ReadReq_miss_rate::.cpu.inst     0.000078                       # miss rate for ReadReq accesses
system.cpu.icache.ReadReq_miss_rate::total     0.000078                       # miss rate for ReadReq accesses
system.cpu.icache.ReadReq_avg_miss_latency::.cpu.inst 110647.540984                       # average ReadReq miss latency
system.cpu.icache.ReadReq_avg_miss_latency::total 110647.540984                       # average ReadReq miss latency
system.cpu.icache.ReadReq_mshr_misses::.cpu.inst          366                       # number of ReadReq MSHR misses
system.cpu.icache.ReadReq_mshr_misses::total          366                       # number of ReadReq MSHR misses
system.cpu.icache.ReadReq_mshr_miss_latency::.cpu.inst     39767000                       # number of ReadReq MSHR miss cycles
system.cpu.icache.ReadReq_mshr_miss_latency::total     39767000                       # number of ReadReq MSHR miss cycles
system.cpu.icache.ReadReq_mshr_miss_rate::.cpu.inst     0.000078                       # mshr miss rate for ReadReq accesses
system.cpu.icache.ReadReq_mshr_miss_rate::total     0.000078                       # mshr miss rate for ReadReq accesses
system.cpu.icache.ReadReq_avg_mshr_miss_latency::.cpu.inst 108653.005464                       # average ReadReq mshr miss latency
system.cpu.icache.ReadReq_avg_mshr_miss_latency::total 108653.005464                       # average ReadReq mshr miss latency
system.cpu.icache.tags.pwrStateResidencyTicks::UNDEFINED  80321201000                       # Cumulative time (in ticks) in various power states
system.cpu.icache.tags.tagsinuse           340.884204                       # Cycle average of tags in use
system.cpu.icache.tags.total_refs             4699498                       # Total number of references to valid blocks.
system.cpu.icache.tags.sampled_refs               365                       # Sample count of references to valid blocks.
system.cpu.icache.tags.avg_refs          12875.336986                       # Average number of references to valid blocks.
system.cpu.icache.tags.warmup_cycle            113000                       # Cycle when the warmup percentage was hit.
system.cpu.icache.tags.occ_blocks::.cpu.inst   340.884204                       # Average occupied blocks per requestor
system.cpu.icache.tags.occ_percent::.cpu.inst     0.166447                       # Average percentage of cache occupancy
system.cpu.icache.tags.occ_percent::total     0.166447                       # Average percentage of cache occupancy
system.cpu.icache.tags.occ_task_id_blocks::1024          365                       # Occupied blocks per task id
system.cpu.icache.tags.age_task_id_blocks_1024::0           24                       # Occupied blocks per task id
system.cpu.icache.tags.age_task_id_blocks_1024::4          341                       # Occupied blocks per task id
system.cpu.icache.tags.occ_task_id_percent::1024     0.178223                       # Percentage of cache occupancy per task id
system.cpu.icache.tags.tag_accesses           9399363                       # Number of tag accesses
system.cpu.icache.tags.data_accesses          9399363                       # Number of data accesses
system.cpu.dtb.walker.pwrStateResidencyTicks::UNDEFINED  80321201000                       # Cumulative time (in ticks) in various power states
system.cpu.interrupts.clk_domain.clock          16000                       # Clock period in ticks
system.cpu.dcache.pwrStateResidencyTicks::UNDEFINED  80321201000                       # Cumulative time (in ticks) in various power states
system.cpu.dcache.demand_hits::.cpu.data      5327071                       # number of demand (read+write) hits
system.cpu.dcache.demand_hits::total          5327071                       # number of demand (read+write) hits
system.cpu.dcache.overall_hits::.cpu.data      5327071                       # number of overall hits
system.cpu.dcache.overall_hits::total         5327071                       # number of overall hits
system.cpu.dcache.demand_misses::.cpu.data      1136563                       # number of demand (read+write) misses
system.cpu.dcache.demand_misses::total        1136563                       # number of demand (read+write) misses
system.cpu.dcache.overall_misses::.cpu.data      1136563                       # number of overall misses
system.cpu.dcache.overall_misses::total       1136563                       # number of overall misses
system.cpu.dcache.demand_miss_latency::.cpu.data  49785336000                       # number of demand (read+write) miss cycles
system.cpu.dcache.demand_miss_latency::total  49785336000                       # number of demand (read+write) miss cycles
system.cpu.dcache.overall_miss_latency::.cpu.data  49785336000                       # number of overall miss cycles
system.cpu.dcache.overall_miss_latency::total  49785336000                       # number of overall miss cycles
system.cpu.dcache.demand_accesses::.cpu.data      6463634                       # number of demand (read+write) accesses
system.cpu.dcache.demand_accesses::total      6463634                       # number of demand (read+write) accesses
system.cpu.dcache.overall_accesses::.cpu.data      6463634                       # number of overall (read+write) accesses
system.cpu.dcache.overall_accesses::total      6463634                       # number of overall (read+write) accesses
system.cpu.dcache.demand_miss_rate::.cpu.data     0.175840                       # miss rate for demand accesses
system.cpu.dcache.demand_miss_rate::total     0.175840                       # miss rate for demand accesses
system.cpu.dcache.overall_miss_rate::.cpu.data     0.175840                       # miss rate for overall accesses
system.cpu.dcache.overall_miss_rate::total     0.175840                       # miss rate for overall accesses
system.cpu.dcache.demand_avg_miss_latency::.cpu.data 43803.410810                       # average overall miss latency
system.cpu.dcache.demand_avg_miss_latency::total 43803.410810                       # average overall miss latency
system.cpu.dcache.overall_avg_miss_latency::.cpu.data 43803.410810                       # average overall miss latency
system.cpu.dcache.overall_avg_miss_latency::total 43803.410810                       # average overall miss latency
system.cpu.dcache.blocked_cycles::no_mshrs            0                       # number of cycles access was blocked
system.cpu.dcache.blocked_cycles::no_targets            0                       # number of cycles access was blocked
system.cpu.dcache.blocked::no_mshrs                 0                       # number of cycles access was blocked
system.cpu.dcache.blocked::no_targets               0                       # number of cycles access was blocked
system.cpu.dcache.avg_blocked_cycles::no_mshrs          nan                       # average number of cycles each access was blocked
system.cpu.dcache.avg_blocked_cycles::no_targets          nan                       # average number of cycles each access was blocked
system.cpu.dcache.writebacks::.writebacks         1652                       # number of writebacks
system.cpu.dcache.writebacks::total              1652                       # number of writebacks
system.cpu.dcache.demand_mshr_hits::.cpu.data           70                       # number of demand (read+write) MSHR hits
system.cpu.dcache.demand_mshr_hits::total           70                       # number of demand (read+write) MSHR hits
system.cpu.dcache.overall_mshr_hits::.cpu.data           70                       # number of overall MSHR hits
system.cpu.dcache.overall_mshr_hits::total           70                       # number of overall MSHR hits
system.cpu.dcache.demand_mshr_misses::.cpu.data      1136493                       # number of demand (read+write) MSHR misses
system.cpu.dcache.demand_mshr_misses::total      1136493                       # number of demand (read+write) MSHR misses
system.cpu.dcache.overall_mshr_misses::.cpu.data      1136493                       # number of overall MSHR misses
system.cpu.dcache.overall_mshr_misses::total      1136493                       # number of overall MSHR misses
system.cpu.dcache.demand_mshr_miss_latency::.cpu.data  47505419000                       # number of demand (read+write) MSHR miss cycles
system.cpu.dcache.demand_mshr_miss_latency::total  47505419000                       # number of demand (read+write) MSHR miss cycles
system.cpu.dcache.overall_mshr_miss_latency::.cpu.data  47505419000                       # number of overall MSHR miss cycles
system.cpu.dcache.overall_mshr_miss_latency::total  47505419000                       # number of overall MSHR miss cycles
system.cpu.dcache.demand_mshr_miss_rate::.cpu.data     0.175829                       # mshr miss rate for demand accesses
system.cpu.dcache.demand_mshr_miss_rate::total     0.175829                       # mshr miss rate for demand accesses
system.cpu.dcache.overall_mshr_miss_rate::.cpu.data     0.175829                       # mshr miss rate for overall accesses
system.cpu.dcache.overall_mshr_miss_rate::total     0.175829                       # mshr miss rate for overall accesses
system.cpu.dcache.demand_avg_mshr_miss_latency::.cpu.data 41800.010207                       # average overall mshr miss latency
system.cpu.dcache.demand_avg_mshr_miss_latency::total 41800.010207                       # average overall mshr miss latency
system.cpu.dcache.overall_avg_mshr_miss_latency::.cpu.data 41800.010207                       # average overall mshr miss latency
system.cpu.dcache.overall_avg_mshr_miss_latency::total 41800.010207                       # average overall mshr miss latency
system.cpu.dcache.replacements                1134445                       # number of replacements
system.cpu.dcache.ReadReq_hits::.cpu.data      5301634                       # number of ReadReq hits
system.cpu.dcache.ReadReq_hits::total         5301634                       # number of ReadReq hits
system.cpu.dcache.ReadReq_misses::.cpu.data      1136409                       # number of ReadReq misses
system.cpu.dcache.ReadReq_misses::total       1136409                       # number of ReadReq misses
system.cpu.dcache.ReadReq_miss_latency::.cpu.data  49768854000                       # number of ReadReq miss cycles
system.cpu.dcache.ReadReq_miss_latency::total  49768854000                       # number of ReadReq miss cycles
system.cpu.dcache.ReadReq_accesses::.cpu.data      6438043                       # number of ReadReq accesses(hits+misses)
system.cpu.dcache.ReadReq_accesses::total      6438043                       # number of ReadReq accesses(hits+misses)
system.cpu.dcache.ReadReq_miss_rate::.cpu.data     0.176515                       # miss rate for ReadReq accesses
system.cpu.dcache.ReadReq_miss_rate::total     0.176515                       # miss rate for ReadReq accesses
system.cpu.dcache.ReadReq_avg_miss_latency::.cpu.data 43794.843230                       # average ReadReq miss latency
system.cpu.dcache.ReadReq_avg_miss_latency::total 43794.843230                       # average ReadReq miss latency
system.cpu.dcache.ReadReq_mshr_hits::.cpu.data            9                       # number of ReadReq MSHR hits
system.cpu.dcache.ReadReq_mshr_hits::total            9                       # number of ReadReq MSHR hits
system.cpu.dcache.ReadReq_mshr_misses::.cpu.data      1136400                       # number of ReadReq MSHR misses
system.cpu.dcache.ReadReq_mshr_misses::total      1136400                       # number of ReadReq MSHR misses
system.cpu.dcache.ReadReq_mshr_miss_latency::.cpu.data  47495167000                       # number of ReadReq MSHR miss cycles
system.cpu.dcache.ReadReq_mshr_miss_latency::total  47495167000                       # number of ReadReq MSHR miss cycles
system.cpu.dcache.ReadReq_mshr_miss_rate::.cpu.data     0.176513                       # mshr miss rate for ReadReq accesses
system.cpu.dcache.ReadReq_mshr_miss_rate::total     0.176513                       # mshr miss rate for ReadReq accesses
system.cpu.dcache.ReadReq_avg_mshr_miss_latency::.cpu.data 41794.409539                       # average ReadReq mshr miss latency
system.cpu.dcache.ReadReq_avg_mshr_miss_latency::total 41794.409539                       # average ReadReq mshr miss latency
system.cpu.dcache.WriteReq_hits::.cpu.data        25437                       # number of WriteReq hits
system.cpu.dcache.WriteReq_hits::total          25437                       # number of WriteReq hits
system.cpu.dcache.WriteReq_misses::.cpu.data          154                       # number of WriteReq misses
system.cpu.dcache.WriteReq_misses::total          154                       # number of WriteReq misses
system.cpu.dcache.WriteReq_miss_latency::.cpu.data     16482000                       # number of WriteReq miss cycles
system.cpu.dcache.WriteReq_miss_latency::total     16482000                       # number of WriteReq miss cycles
system.cpu.dcache.WriteReq_accesses::.cpu.data        25591                       # number of WriteReq accesses(hits+misses)
system.cpu.dcache.WriteReq_accesses::total        25591                       # number of WriteReq accesses(hits+misses)
system.cpu.dcache.WriteReq_miss_rate::.cpu.data     0.006018                       # miss rate for WriteReq accesses
system.cpu.dcache.WriteReq_miss_rate::total     0.006018                       # miss rate for WriteReq accesses
system.cpu.dcache.WriteReq_avg_miss_latency::.cpu.data 107025.974026                       # average WriteReq miss latency
system.cpu.dcache.WriteReq_avg_miss_latency::total 107025.974026                       # average WriteReq miss latency
system.cpu.dcache.WriteReq_mshr_hits::.cpu.data           61                       # number of WriteReq MSHR hits
system.cpu.dcache.WriteReq_mshr_hits::total           61                       # number of WriteReq MSHR hits
system.cpu.dcache.WriteReq_mshr_misses::.cpu.data           93                       # number of WriteReq MSHR misses
system.cpu.dcache.WriteReq_mshr_misses::total           93                       # number of WriteReq MSHR misses
system.cpu.dcache.WriteReq_mshr_miss_latency::.cpu.data     10252000                       # number of WriteReq MSHR miss cycles
system.cpu.dcache.WriteReq_mshr_miss_latency::total     10252000                       # number of WriteReq MSHR miss cycles
system.cpu.dcache.WriteReq_mshr_miss_rate::.cpu.data     0.003634                       # mshr miss rate for WriteReq accesses
system.cpu.dcache.WriteReq_mshr_miss_rate::total     0.003634                       # mshr miss rate for WriteReq accesses
system.cpu.dcache.WriteReq_avg_mshr_miss_latency::.cpu.data 110236.559140                       # average WriteReq mshr miss latency
system.cpu.dcache.WriteReq_avg_mshr_miss_latency::total 110236.559140                       # average WriteReq mshr miss latency
system.cpu.dcache.tags.pwrStateResidencyTicks::UNDEFINED  80321201000                       # Cumulative time (in ticks) in various power states
system.cpu.dcache.tags.tagsinuse          2042.545211                       # Cycle average of tags in use
system.cpu.dcache.tags.total_refs             6463564                       # Total number of references to valid blocks.
system.cpu.dcache.tags.sampled_refs           1136493                       # Sample count of references to valid blocks.
system.cpu.dcache.tags.avg_refs              5.687289                       # Average number of references to valid blocks.
system.cpu.dcache.tags.warmup_cycle            233000                       # Cycle when the warmup percentage was hit.
system.cpu.dcache.tags.occ_blocks::.cpu.data  2042.545211                       # Average occupied blocks per requestor
system.cpu.dcache.tags.occ_percent::.cpu.data     0.997337                       # Average percentage of cache occupancy
system.cpu.dcache.tags.occ_percent::total     0.997337                       # Average percentage of cache occupancy
system.cpu.dcache.tags.occ_task_id_blocks::1024         2048                       # Occupied blocks per task id
system.cpu.dcache.tags.age_task_id_blocks_1024::0          102                       # Occupied blocks per task id
system.cpu.dcache.tags.age_task_id_blocks_1024::1         1034                       # Occupied blocks per task id
system.cpu.dcache.tags.age_task_id_blocks_1024::2          912                       # Occupied blocks per task id
system.cpu.dcache.tags.occ_task_id_percent::1024            1                       # Percentage of cache occupancy per task id
system.cpu.dcache.tags.tag_accesses          14063761                       # Number of tag accesses
system.cpu.dcache.tags.data_accesses         14063761                       # Number of data accesses
system.cpu.itb.walker.pwrStateResidencyTicks::UNDEFINED  80321201000                       # Cumulative time (in ticks) in various power states
system.l2cache.pwrStateResidencyTicks::UNDEFINED  80321201000                       # Cumulative time (in ticks) in various power states
system.l2cache.demand_hits::.cpu.inst               1                       # number of demand (read+write) hits
system.l2cache.demand_hits::.cpu.data          935642                       # number of demand (read+write) hits
system.l2cache.demand_hits::total              935643                       # number of demand (read+write) hits
system.l2cache.overall_hits::.cpu.inst              1                       # number of overall hits
system.l2cache.overall_hits::.cpu.data         935642                       # number of overall hits
system.l2cache.overall_hits::total             935643                       # number of overall hits
system.l2cache.demand_misses::.cpu.inst           365                       # number of demand (read+write) misses
system.l2cache.demand_misses::.cpu.data        200851                       # number of demand (read+write) misses
system.l2cache.demand_misses::total            201216                       # number of demand (read+write) misses
system.l2cache.overall_misses::.cpu.inst          365                       # number of overall misses
system.l2cache.overall_misses::.cpu.data       200851                       # number of overall misses
system.l2cache.overall_misses::total           201216                       # number of overall misses
system.l2cache.demand_miss_latency::.cpu.inst     38649000                       # number of demand (read+write) miss cycles
system.l2cache.demand_miss_latency::.cpu.data  24385547000                       # number of demand (read+write) miss cycles
system.l2cache.demand_miss_latency::total  24424196000                       # number of demand (read+write) miss cycles
system.l2cache.overall_miss_latency::.cpu.inst     38649000                       # number of overall miss cycles
system.l2cache.overall_miss_latency::.cpu.data  24385547000                       # number of overall miss cycles
system.l2cache.overall_miss_latency::total  24424196000                       # number of overall miss cycles
system.l2cache.demand_accesses::.cpu.inst          366                       # number of demand (read+write) accesses
system.l2cache.demand_accesses::.cpu.data      1136493                       # number of demand (read+write) accesses
system.l2cache.demand_accesses::total         1136859                       # number of demand (read+write) accesses
system.l2cache.overall_accesses::.cpu.inst          366                       # number of overall (read+write) accesses
system.l2cache.overall_accesses::.cpu.data      1136493                       # number of overall (read+write) accesses
system.l2cache.overall_accesses::total        1136859                       # number of overall (read+write) accesses
system.l2cache.demand_miss_rate::.cpu.inst     0.997268                       # miss rate for demand accesses
system.l2cache.demand_miss_rate::.cpu.data     0.176729                       # miss rate for demand accesses
system.l2cache.demand_miss_rate::total       0.176993                       # miss rate for demand accesses
system.l2cache.overall_miss_rate::.cpu.inst     0.997268                       # miss rate for overall accesses
system.l2cache.overall_miss_rate::.cpu.data     0.176729                       # miss rate for overall accesses
system.l2cache.overall_miss_rate::total      0.176993                       # miss rate for overall accesses
system.l2cache.demand_avg_miss_latency::.cpu.inst 105887.671233                       # average overall miss latency
system.l2cache.demand_avg_miss_latency::.cpu.data 121411.130639                       # average overall miss latency
system.l2cache.demand_avg_miss_latency::total 121382.971533                       # average overall miss latency
system.l2cache.overall_avg_miss_latency::.cpu.inst 105887.671233                       # average overall miss latency
system.l2cache.overall_avg_miss_latency::.cpu.data 121411.130639                       # average overall miss latency
system.l2cache.overall_avg_miss_latency::total 121382.971533                       # average overall miss latency
system.l2cache.blocked_cycles::no_mshrs             0                       # number of cycles access was blocked
system.l2cache.blocked_cycles::no_targets            0                       # number of cycles access was blocked
system.l2cache.blocked::no_mshrs                    0                       # number of cycles access was blocked
system.l2cache.blocked::no_targets                  0                       # number of cycles access was blocked
system.l2cache.avg_blocked_cycles::no_mshrs          nan                       # average number of cycles each access was blocked
system.l2cache.avg_blocked_cycles::no_targets          nan                       # average number of cycles each access was blocked
system.l2cache.writebacks::.writebacks           1553                       # number of writebacks
system.l2cache.writebacks::total                 1553                       # number of writebacks
system.l2cache.demand_mshr_misses::.cpu.inst          365                       # number of demand (read+write) MSHR misses
system.l2cache.demand_mshr_misses::.cpu.data       200851                       # number of demand (read+write) MSHR misses
system.l2cache.demand_mshr_misses::total       201216                       # number of demand (read+write) MSHR misses
system.l2cache.overall_mshr_misses::.cpu.inst          365                       # number of overall MSHR misses
system.l2cache.overall_mshr_misses::.cpu.data       200851                       # number of overall MSHR misses
system.l2cache.overall_mshr_misses::total       201216                       # number of overall MSHR misses
system.l2cache.demand_mshr_miss_latency::.cpu.inst     31369000                       # number of demand (read+write) MSHR miss cycles
system.l2cache.demand_mshr_miss_latency::.cpu.data  20368527000                       # number of demand (read+write) MSHR miss cycles
system.l2cache.demand_mshr_miss_latency::total  20399896000                       # number of demand (read+write) MSHR miss cycles
system.l2cache.overall_mshr_miss_latency::.cpu.inst     31369000                       # number of overall MSHR miss cycles
system.l2cache.overall_mshr_miss_latency::.cpu.data  20368527000                       # number of overall MSHR miss cycles
system.l2cache.overall_mshr_miss_latency::total  20399896000                       # number of overall MSHR miss cycles
system.l2cache.demand_mshr_miss_rate::.cpu.inst     0.997268                       # mshr miss rate for demand accesses
system.l2cache.demand_mshr_miss_rate::.cpu.data     0.176729                       # mshr miss rate for demand accesses
system.l2cache.demand_mshr_miss_rate::total     0.176993                       # mshr miss rate for demand accesses
system.l2cache.overall_mshr_miss_rate::.cpu.inst     0.997268                       # mshr miss rate for overall accesses
system.l2cache.overall_mshr_miss_rate::.cpu.data     0.176729                       # mshr miss rate for overall accesses
system.l2cache.overall_mshr_miss_rate::total     0.176993                       # mshr miss rate for overall accesses
system.l2cache.demand_avg_mshr_miss_latency::.cpu.inst 85942.465753                       # average overall mshr miss latency
system.l2cache.demand_avg_mshr_miss_latency::.cpu.data 101411.130639                       # average overall mshr miss latency
system.l2cache.demand_avg_mshr_miss_latency::total 101383.070929                       # average overall mshr miss latency
system.l2cache.overall_avg_mshr_miss_latency::.cpu.inst 85942.465753                       # average overall mshr miss latency
system.l2cache.overall_avg_mshr_miss_latency::.cpu.data 101411.130639                       # average overall mshr miss latency
system.l2cache.overall_avg_mshr_miss_latency::total 101383.070929                       # average overall mshr miss latency
system.l2cache.replacements                    184831                       # number of replacements
system.l2cache.WritebackDirty_hits::.writebacks         1652                       # number of WritebackDirty hits
system.l2cache.WritebackDirty_hits::total         1652                       # number of WritebackDirty hits
system.l2cache.WritebackDirty_accesses::.writebacks         1652                       # number of WritebackDirty accesses(hits+misses)
system.l2cache.WritebackDirty_accesses::total         1652                       # number of WritebackDirty accesses(hits+misses)
system.l2cache.ReadExReq_misses::.cpu.data           93                       # number of ReadExReq misses
system.l2cache.ReadExReq_misses::total             93                       # number of ReadExReq misses
system.l2cache.ReadExReq_miss_latency::.cpu.data      9973000                       # number of ReadExReq miss cycles
system.l2cache.ReadExReq_miss_latency::total      9973000                       # number of ReadExReq miss cycles
system.l2cache.ReadExReq_accesses::.cpu.data           93                       # number of ReadExReq accesses(hits+misses)
system.l2cache.ReadExReq_accesses::total           93                       # number of ReadExReq accesses(hits+misses)
system.l2cache.ReadExReq_miss_rate::.cpu.data            1                       # miss rate for ReadExReq accesses
system.l2cache.ReadExReq_miss_rate::total            1                       # miss rate for ReadExReq accesses
system.l2cache.ReadExReq_avg_miss_latency::.cpu.data 107236.559140                       # average ReadExReq miss latency
system.l2cache.ReadExReq_avg_miss_latency::total 107236.559140                       # average ReadExReq miss latency
system.l2cache.ReadExReq_mshr_misses::.cpu.data           93                       # number of ReadExReq MSHR misses
system.l2cache.ReadExReq_mshr_misses::total           93                       # number of ReadExReq MSHR misses
system.l2cache.ReadExReq_mshr_miss_latency::.cpu.data      8113000                       # number of ReadExReq MSHR miss cycles
system.l2cache.ReadExReq_mshr_miss_latency::total      8113000                       # number of ReadExReq MSHR miss cycles
system.l2cache.ReadExReq_mshr_miss_rate::.cpu.data            1                       # mshr miss rate for ReadExReq accesses
system.l2cache.ReadExReq_mshr_miss_rate::total            1                       # mshr miss rate for ReadExReq accesses
system.l2cache.ReadExReq_avg_mshr_miss_latency::.cpu.data 87236.559140                       # average ReadExReq mshr miss latency
system.l2cache.ReadExReq_avg_mshr_miss_latency::total 87236.559140                       # average ReadExReq mshr miss latency
system.l2cache.ReadSharedReq_hits::.cpu.inst            1                       # number of ReadSharedReq hits
system.l2cache.ReadSharedReq_hits::.cpu.data       935642                       # number of ReadSharedReq hits
system.l2cache.ReadSharedReq_hits::total       935643                       # number of ReadSharedReq hits
system.l2cache.ReadSharedReq_misses::.cpu.inst          365                       # number of ReadSharedReq misses
system.l2cache.ReadSharedReq_misses::.cpu.data       200758                       # number of ReadSharedReq misses
system.l2cache.ReadSharedReq_misses::total       201123                       # number of ReadSharedReq misses
system.l2cache.ReadSharedReq_miss_latency::.cpu.inst     38649000                       # number of ReadSharedReq miss cycles
system.l2cache.ReadSharedReq_miss_latency::.cpu.data  24375574000                       # number of ReadSharedReq miss cycles
system.l2cache.ReadSharedReq_miss_latency::total  24414223000                       # number of ReadSharedReq miss cycles
system.l2cache.ReadSharedReq_accesses::.cpu.inst          366                       # number of ReadSharedReq accesses(hits+misses)
system.l2cache.ReadSharedReq_accesses::.cpu.data      1136400                       # number of ReadSharedReq accesses(hits+misses)
system.l2cache.ReadSharedReq_accesses::total      1136766                       # number of ReadSharedReq accesses(hits+misses)
system.l2cache.ReadSharedReq_miss_rate::.cpu.inst     0.997268                       # miss rate for ReadSharedReq accesses
system.l2cache.ReadSharedReq_miss_rate::.cpu.data     0.176661                       # miss rate for ReadSharedReq accesses
system.l2cache.ReadSharedReq_miss_rate::total     0.176926                       # miss rate for ReadSharedReq accesses
system.l2cache.ReadSharedReq_avg_miss_latency::.cpu.inst 105887.671233                       # average ReadSharedReq miss latency
system.l2cache.ReadSharedReq_avg_miss_latency::.cpu.data 121417.696929                       # average ReadSharedReq miss latency
system.l2cache.ReadSharedReq_avg_miss_latency::total 121389.512885                       # average ReadSharedReq miss latency
system.l2cache.ReadSharedReq_mshr_misses::.cpu.inst          365                       # number of ReadSharedReq MSHR misses
system.l2cache.ReadSharedReq_mshr_misses::.cpu.data       200758                       # number of ReadSharedReq MSHR misses
system.l2cache.ReadSharedReq_mshr_misses::total       201123                       # number of ReadSharedReq MSHR misses
system.l2cache.ReadSharedReq_mshr_miss_latency::.cpu.inst     31369000                       # number of ReadSharedReq MSHR miss cycles
system.l2cache.ReadSharedReq_mshr_miss_latency::.cpu.data  20360414000                       # number of ReadSharedReq MSHR miss cycles
system.l2cache.ReadSharedReq_mshr_miss_latency::total  20391783000                       # number of ReadSharedReq MSHR miss cycles
system.l2cache.ReadSharedReq_mshr_miss_rate::.cpu.inst     0.997268                       # mshr miss rate for ReadSharedReq accesses
system.l2cache.ReadSharedReq_mshr_miss_rate::.cpu.data     0.176661                       # mshr miss rate for ReadSharedReq accesses
system.l2cache.ReadSharedReq_mshr_miss_rate::total     0.176926                       # mshr miss rate for ReadSharedReq accesses
system.l2cache.ReadSharedReq_avg_mshr_miss_latency::.cpu.inst 85942.465753                       # average ReadSharedReq mshr miss latency
system.l2cache.ReadSharedReq_avg_mshr_miss_latency::.cpu.data 101417.696929                       # average ReadSharedReq mshr miss latency
system.l2cache.ReadSharedReq_avg_mshr_miss_latency::total 101389.612327                       # average ReadSharedReq mshr miss latency
system.l2cache.tags.pwrStateResidencyTicks::UNDEFINED  80321201000                       # Cumulative time (in ticks) in various power states
system.l2cache.tags.tagsinuse            15940.889427                       # Cycle average of tags in use
system.l2cache.tags.total_refs                2271302                       # Total number of references to valid blocks.
system.l2cache.tags.sampled_refs               201215                       # Sample count of references to valid blocks.
system.l2cache.tags.avg_refs                11.287936                       # Average number of references to valid blocks.
system.l2cache.tags.warmup_cycle                92000                       # Cycle when the warmup percentage was hit.
system.l2cache.tags.occ_blocks::.cpu.inst    20.011423                       # Average occupied blocks per requestor
system.l2cache.tags.occ_blocks::.cpu.data 15920.878004                       # Average occupied blocks per requestor
system.l2cache.tags.occ_percent::.cpu.inst     0.001221                       # Average percentage of cache occupancy
system.l2cache.tags.occ_percent::.cpu.data     0.971733                       # Average percentage of cache occupancy
system.l2cache.tags.occ_percent::total       0.972955                       # Average percentage of cache occupancy
system.l2cache.tags.occ_task_id_blocks::1024        16384                       # Occupied blocks per task id
system.l2cache.tags.age_task_id_blocks_1024::0           62                       # Occupied blocks per task id
system.l2cache.tags.age_task_id_blocks_1024::1          221                       # Occupied blocks per task id
system.l2cache.tags.age_task_id_blocks_1024::2         2207                       # Occupied blocks per task id
system.l2cache.tags.age_task_id_blocks_1024::3         9797                       # Occupied blocks per task id
system.l2cache.tags.age_task_id_blocks_1024::4         4097                       # Occupied blocks per task id
system.l2cache.tags.occ_task_id_percent::1024            1                       # Percentage of cache occupancy per task id
system.l2cache.tags.tag_accesses             18371639                       # Number of tag accesses
system.l2cache.tags.data_accesses            18371639                       # Number of data accesses
system.mem_ctrl.pwrStateResidencyTicks::UNDEFINED  80321201000                       # Cumulative time (in ticks) in various power states
system.mem_ctrl.bytes_read::.cpu.inst           23296                       # Number of bytes read from this memory
system.mem_ctrl.bytes_read::.cpu.data        12854464                       # Number of bytes read from this memory
system.mem_ctrl.bytes_read::total            12877760                       # Number of bytes read from this memory
system.mem_ctrl.bytes_inst_read::.cpu.inst        23296                       # Number of instructions bytes read from this memory
system.mem_ctrl.bytes_inst_read::total          23296                       # Number of instructions bytes read from this memory
system.mem_ctrl.bytes_written::.writebacks        99392                       # Number of bytes written to this memory
system.mem_ctrl.bytes_written::total            99392                       # Number of bytes written to this memory
system.mem_ctrl.num_reads::.cpu.inst              364                       # Number of read requests responded to by this memory
system.mem_ctrl.num_reads::.cpu.data           200851                       # Number of read requests responded to by this memory
system.mem_ctrl.num_reads::total               201215                       # Number of read requests responded to by this memory
system.mem_ctrl.num_writes::.writebacks          1553                       # Number of write requests responded to by this memory
system.mem_ctrl.num_writes::total                1553                       # Number of write requests responded to by this memory
system.mem_ctrl.bw_read::.cpu.inst             290036                       # Total read bandwidth from this memory (bytes/s)
system.mem_ctrl.bw_read::.cpu.data          160038244                       # Total read bandwidth from this memory (bytes/s)
system.mem_ctrl.bw_read::total              160328280                       # Total read bandwidth from this memory (bytes/s)
system.mem_ctrl.bw_inst_read::.cpu.inst        290036                       # Instruction read bandwidth from this memory (bytes/s)
system.mem_ctrl.bw_inst_read::total            290036                       # Instruction read bandwidth from this memory (bytes/s)
system.mem_ctrl.bw_write::.writebacks         1237432                       # Write bandwidth from this memory (bytes/s)
system.mem_ctrl.bw_write::total               1237432                       # Write bandwidth from this memory (bytes/s)
system.mem_ctrl.bw_total::.writebacks         1237432                       # Total bandwidth to/from this memory (bytes/s)
system.mem_ctrl.bw_total::.cpu.inst            290036                       # Total bandwidth to/from this memory (bytes/s)
system.mem_ctrl.bw_total::.cpu.data         160038244                       # Total bandwidth to/from this memory (bytes/s)
system.mem_ctrl.bw_total::total             161565712                       # Total bandwidth to/from this memory (bytes/s)
system.mem_ctrl.avgPriority_.writebacks::samples      3106.00                       # Average QoS priority value for accepted requests
system.mem_ctrl.avgPriority_.cpu.inst::samples       728.00                       # Average QoS priority value for accepted requests
system.mem_ctrl.avgPriority_.cpu.data::samples    401702.00                       # Average QoS priority value for accepted requests
system.mem_ctrl.priorityMinLatency       0.000000019000                       # per QoS priority minimum request to response latency (s)
system.mem_ctrl.priorityMaxLatency       0.004908706000                       # per QoS priority maximum request to response latency (s)
system.mem_ctrl.numReadWriteTurnArounds           178                       # Number of turnarounds from READ to WRITE
system.mem_ctrl.numWriteReadTurnArounds           178                       # Number of turnarounds from WRITE to READ
system.mem_ctrl.numStayReadState               625583                       # Number of times bus staying in READ state
system.mem_ctrl.numStayWriteState                2905                       # Number of times bus staying in WRITE state
system.mem_ctrl.readReqs                       201215                       # Number of read requests accepted
system.mem_ctrl.writeReqs                        1553                       # Number of write requests accepted
system.mem_ctrl.readBursts                     402430                       # Number of DRAM read bursts, including those serviced by the write queue
system.mem_ctrl.writeBursts                      3106                       # Number of DRAM write bursts, including those merged in the write queue
system.mem_ctrl.servicedByWrQ                       0                       # Number of DRAM read bursts serviced by the write queue
system.mem_ctrl.mergedWrBursts                      0                       # Number of DRAM write bursts merged with an existing one
system.mem_ctrl.neitherReadNorWriteReqs             0                       # Number of requests that are neither read nor write
system.mem_ctrl.perBankRdBursts::0              25162                       # Per bank write bursts
system.mem_ctrl.perBankRdBursts::1              25146                       # Per bank write bursts
system.mem_ctrl.perBankRdBursts::2              25126                       # Per bank write bursts
system.mem_ctrl.perBankRdBursts::3              25114                       # Per bank write bursts
system.mem_ctrl.perBankRdBursts::4              25170                       # Per bank write bursts
system.mem_ctrl.perBankRdBursts::5              25170                       # Per bank write bursts
system.mem_ctrl.perBankRdBursts::6              25180                       # Per bank write bursts
system.mem_ctrl.perBankRdBursts::7              25220                       # Per bank write bursts
system.mem_ctrl.perBankRdBursts::8              25176                       # Per bank write bursts
system.mem_ctrl.perBankRdBursts::9              25186                       # Per bank write bursts
system.mem_ctrl.perBankRdBursts::10             25168                       # Per bank write bursts
system.mem_ctrl.perBankRdBursts::11             25132                       # Per bank write bursts
system.mem_ctrl.perBankRdBursts::12             25130                       # Per bank write bursts
system.mem_ctrl.perBankRdBursts::13             25114                       # Per bank write bursts
system.mem_ctrl.perBankRdBursts::14             25130                       # Per bank write bursts
system.mem_ctrl.perBankRdBursts::15             25106                       # Per bank write bursts
system.mem_ctrl.perBankWrBursts::0                218                       # Per bank write bursts
system.mem_ctrl.perBankWrBursts::1                226                       # Per bank write bursts
system.mem_ctrl.perBankWrBursts::2                192                       # Per bank write bursts
system.mem_ctrl.perBankWrBursts::3                210                       # Per bank write bursts
system.mem_ctrl.perBankWrBursts::4                196                       # Per bank write bursts
system.mem_ctrl.perBankWrBursts::5                192                       # Per bank write bursts
system.mem_ctrl.perBankWrBursts::6                188                       # Per bank write bursts
system.mem_ctrl.perBankWrBursts::7                204                       # Per bank write bursts
system.mem_ctrl.perBankWrBursts::8                181                       # Per bank write bursts
system.mem_ctrl.perBankWrBursts::9                164                       # Per bank write bursts
system.mem_ctrl.perBankWrBursts::10               170                       # Per bank write bursts
system.mem_ctrl.perBankWrBursts::11               162                       # Per bank write bursts
system.mem_ctrl.perBankWrBursts::12               196                       # Per bank write bursts
system.mem_ctrl.perBankWrBursts::13               198                       # Per bank write bursts
system.mem_ctrl.perBankWrBursts::14               200                       # Per bank write bursts
system.mem_ctrl.perBankWrBursts::15               184                       # Per bank write bursts
system.mem_ctrl.avgRdQLen                        2.00                       # Average read queue length when enqueuing
system.mem_ctrl.avgWrQLen                       23.62                       # Average write queue length when enqueuing
system.mem_ctrl.totQLat                   11770674000                       # Total ticks spent queuing
system.mem_ctrl.totBusLat                  1609720000                       # Total ticks spent in databus transfers
system.mem_ctrl.totMemAccLat              19416844000                       # Total ticks spent from burst creation until serviced by the DRAM
system.mem_ctrl.avgQLat                      29249.00                       # Average queueing delay per DRAM burst
system.mem_ctrl.avgBusLat                     4000.00                       # Average bus latency per DRAM burst
system.mem_ctrl.avgMemAccLat                 48249.00                       # Average memory access latency per DRAM burst
system.mem_ctrl.numRdRetry                          0                       # Number of times read queue was full causing retry
system.mem_ctrl.numWrRetry                          0                       # Number of times write queue was full causing retry
system.mem_ctrl.readRowHits                    249530                       # Number of row buffer hits during reads
system.mem_ctrl.writeRowHits                     2733                       # Number of row buffer hits during writes
system.mem_ctrl.readRowHitRate                  62.01                       # Row buffer hit rate for reads
system.mem_ctrl.writeRowHitRate                 87.99                       # Row buffer hit rate for writes
system.mem_ctrl.readPktSize::0                      0                       # Read request sizes (log2)
system.mem_ctrl.readPktSize::1                      0                       # Read request sizes (log2)
system.mem_ctrl.readPktSize::2                      0                       # Read request sizes (log2)
system.mem_ctrl.readPktSize::3                      0                       # Read request sizes (log2)
system.mem_ctrl.readPktSize::4                      0                       # Read request sizes (log2)
system.mem_ctrl.readPktSize::5                 402430                       # Read request sizes (log2)
system.mem_ctrl.writePktSize::0                     0                       # Write request sizes (log2)
system.mem_ctrl.writePktSize::1                     0                       # Write request sizes (log2)
system.mem_ctrl.writePktSize::2                     0                       # Write request sizes (log2)
system.mem_ctrl.writePktSize::3                     0                       # Write request sizes (log2)
system.mem_ctrl.writePktSize::4                     0                       # Write request sizes (log2)
system.mem_ctrl.writePktSize::5                  3106                       # Write request sizes (log2)
system.mem_ctrl.rdQLenPdf::0                   200795                       # What read queue length does an incoming req see
system.mem_ctrl.rdQLenPdf::1                   200797                       # What read queue length does an incoming req see
system.mem_ctrl.rdQLenPdf::2                      415                       # What read queue length does an incoming req see
system.mem_ctrl.rdQLenPdf::3                      413                       # What read queue length does an incoming req see
system.mem_ctrl.rdQLenPdf::4                        5                       # What read queue length does an incoming req see
system.mem_ctrl.rdQLenPdf::5                        5                       # What read queue length does an incoming req see
system.mem_ctrl.rdQLenPdf::6                        0                       # What read queue length does an incoming req see
system.mem_ctrl.rdQLenPdf::7                        0                       # What read queue length does an incoming req see
system.mem_ctrl.rdQLenPdf::8                        0                       # What read queue length does an incoming req see
system.mem_ctrl.rdQLenPdf::9                        0                       # What read queue length does an incoming req see
system.mem_ctrl.rdQLenPdf::10                       0                       # What read queue length does an incoming req see
system.mem_ctrl.rdQLenPdf::11                       0                       # What read queue length does an incoming req see
system.mem_ctrl.rdQLenPdf::12                       0                       # What read queue length does an incoming req see
system.mem_ctrl.rdQLenPdf::13                       0                       # What read queue length does an incoming req see
system.mem_ctrl.rdQLenPdf::14                       0                       # What read queue length does an incoming req see
system.mem_ctrl.rdQLenPdf::15                       0                       # What read queue length does an incoming req see
system.mem_ctrl.rdQLenPdf::16                       0                       # What read queue length does an incoming req see
system.mem_ctrl.rdQLenPdf::17                       0                       # What read queue length does an incoming req see
system.mem_ctrl.rdQLenPdf::18                       0                       # What read queue length does an incoming req see
system.mem_ctrl.rdQLenPdf::19                       0                       # What read queue length does an incoming req see
system.mem_ctrl.rdQLenPdf::20                       0                       # What read queue length does an incoming req see
system.mem_ctrl.rdQLenPdf::21                       0                       # What read queue length does an incoming req see
system.mem_ctrl.rdQLenPdf::22                       0                       # What read queue length does an incoming req see
system.mem_ctrl.rdQLenPdf::23                       0                       # What read queue length does an incoming req see
system.mem_ctrl.rdQLenPdf::24                       0                       # What read queue length does an incoming req see
system.mem_ctrl.rdQLenPdf::25                       0                       # What read queue length does an incoming req see
system.mem_ctrl.rdQLenPdf::26                       0                       # What read queue length does an incoming req see
system.mem_ctrl.rdQLenPdf::27                       0                       # What read queue length does an incoming req see
system.mem_ctrl.rdQLenPdf::28                       0                       # What read queue length does an incoming req see
system.mem_ctrl.rdQLenPdf::29                       0                       # What read queue length does an incoming req see
system.mem_ctrl.rdQLenPdf::30                       0                       # What read queue length does an incoming req see
system.mem_ctrl.rdQLenPdf::31                       0                       # What read queue length does an incoming req see
system.mem_ctrl.wrQLenPdf::0                        1                       # What write queue length does an incoming req see
system.mem_ctrl.wrQLenPdf::1                        1                       # What write queue length does an incoming req see
system.mem_ctrl.wrQLenPdf::2                        1                       # What write queue length does an incoming req see
system.mem_ctrl.wrQLenPdf::3                        1                       # What write queue length does an incoming req see
system.mem_ctrl.wrQLenPdf::4                        1                       # What write queue length does an incoming req see
system.mem_ctrl.wrQLenPdf::5                        1                       # What write queue length does an incoming req see
system.mem_ctrl.wrQLenPdf::6                        1                       # What write queue length does an incoming req see
system.mem_ctrl.wrQLenPdf::7                        1                       # What write queue length does an incoming req see
system.mem_ctrl.wrQLenPdf::8                        1                       # What write queue length does an incoming req see
system.mem_ctrl.wrQLenPdf::9                        1                       # What write queue length does an incoming req see
system.mem_ctrl.wrQLenPdf::10                       1                       # What write queue length does an incoming req see
system.mem_ctrl.wrQLenPdf::11                       1                       # What write queue length does an incoming req see
system.mem_ctrl.wrQLenPdf::12                       1                       # What write queue length does an incoming req see
system.mem_ctrl.wrQLenPdf::13                       1                       # What write queue length does an incoming req see
system.mem_ctrl.wrQLenPdf::14                       1                       # What write queue length does an incoming req see
system.mem_ctrl.wrQLenPdf::15                     117                       # What write queue length does an incoming req see
system.mem_ctrl.wrQLenPdf::16                     117                       # What write queue length does an incoming req see
system.mem_ctrl.wrQLenPdf::17                     179                       # What write queue length does an incoming req see
system.mem_ctrl.wrQLenPdf::18                     179                       # What write queue length does an incoming req see
system.mem_ctrl.wrQLenPdf::19                     179                       # What write queue length does an incoming req see
system.mem_ctrl.wrQLenPdf::20                     179                       # What write queue length does an incoming req see
system.mem_ctrl.wrQLenPdf::21                     179                       # What write queue length does an incoming req see
system.mem_ctrl.wrQLenPdf::22                     179                       # What write queue length does an incoming req see
system.mem_ctrl.wrQLenPdf::23                     179                       # What write queue length does an incoming req see
system.mem_ctrl.wrQLenPdf::24                     179                       # What write queue length does an incoming req see
system.mem_ctrl.wrQLenPdf::25                     178                       # What write queue length does an incoming req see
system.mem_ctrl.wrQLenPdf::26                     178                       # What write queue length does an incoming req see
system.mem_ctrl.wrQLenPdf::27                     178                       # What write queue length does an incoming req see
system.mem_ctrl.wrQLenPdf::28                     178                       # What write queue length does an incoming req see
system.mem_ctrl.wrQLenPdf::29                     178                       # What write queue length does an incoming req see
system.mem_ctrl.wrQLenPdf::30                     178                       # What write queue length does an incoming req see
system.mem_ctrl.wrQLenPdf::31                     178                       # What write queue length does an incoming req see
system.mem_ctrl.wrQLenPdf::32                     178                       # What write queue length does an incoming req see
system.mem_ctrl.wrQLenPdf::33                       1                       # What write queue length does an incoming req see
system.mem_ctrl.wrQLenPdf::34                       0                       # What write queue length does an incoming req see
system.mem_ctrl.wrQLenPdf::35                       0                       # What write queue length does an incoming req see
system.mem_ctrl.wrQLenPdf::36                       0                       # What write queue length does an incoming req see
system.mem_ctrl.wrQLenPdf::37                       0                       # What write queue length does an incoming req see
system.mem_ctrl.wrQLenPdf::38                       0                       # What write queue length does an incoming req see
system.mem_ctrl.wrQLenPdf::39                       0                       # What write queue length does an incoming req see
system.mem_ctrl.wrQLenPdf::40                       0                       # What write queue length does an incoming req see
system.mem_ctrl.wrQLenPdf::41                       0                       # What write queue length does an incoming req see
system.mem_ctrl.wrQLenPdf::42                       0                       # What write queue length does an incoming req see
system.mem_ctrl.wrQLenPdf::43                       0                       # What write queue length does an incoming req see
system.mem_ctrl.wrQLenPdf::44                       0                       # What write queue length does an incoming req see
system.mem_ctrl.wrQLenPdf::45                       0                       # What write queue length does an incoming req see
system.mem_ctrl.wrQLenPdf::46                       0                       # What write queue length does an incoming req see
system.mem_ctrl.wrQLenPdf::47                       0                       # What write queue length does an incoming req see
system.mem_ctrl.wrQLenPdf::48                       0                       # What write queue length does an incoming req see
system.mem_ctrl.wrQLenPdf::49                       0                       # What write queue length does an incoming req see
system.mem_ctrl.wrQLenPdf::50                       0                       # What write queue length does an incoming req see
system.mem_ctrl.wrQLenPdf::51                       0                       # What write queue length does an incoming req see
system.mem_ctrl.wrQLenPdf::52                       0                       # What write queue length does an incoming req see
system.mem_ctrl.wrQLenPdf::53                       0                       # What write queue length does an incoming req see
system.mem_ctrl.wrQLenPdf::54                       0                       # What write queue length does an incoming req see
system.mem_ctrl.wrQLenPdf::55                       0                       # What write queue length does an incoming req see
system.mem_ctrl.wrQLenPdf::56                       0                       # What write queue length does an incoming req see
system.mem_ctrl.wrQLenPdf::57                       0                       # What write queue length does an incoming req see
system.mem_ctrl.wrQLenPdf::58                       0                       # What write queue length does an incoming req see
system.mem_ctrl.wrQLenPdf::59                       0                       # What write queue length does an incoming req see
system.mem_ctrl.wrQLenPdf::60                       0                       # What write queue length does an incoming req see
system.mem_ctrl.wrQLenPdf::61                       0                       # What write queue length does an incoming req see
system.mem_ctrl.wrQLenPdf::62                       0                       # What write queue length does an incoming req see
system.mem_ctrl.wrQLenPdf::63                       0                       # What write queue length does an incoming req see
system.mem_ctrl.bytesPerActivate::samples       153242                       # Bytes accessed per row activation
system.mem_ctrl.bytesPerActivate::mean      84.672557                       # Bytes accessed per row activation
system.mem_ctrl.bytesPerActivate::gmean     74.669822                       # Bytes accessed per row activation
system.mem_ctrl.bytesPerActivate::stdev     59.736771                       # Bytes accessed per row activation
system.mem_ctrl.bytesPerActivate::0-63            377      0.25%      0.25% # Bytes accessed per row activation
system.mem_ctrl.bytesPerActivate::64-127       132659     86.57%     86.81% # Bytes accessed per row activation
system.mem_ctrl.bytesPerActivate::128-191         5443      3.55%     90.37% # Bytes accessed per row activation
system.mem_ctrl.bytesPerActivate::192-255         5040      3.29%     93.66% # Bytes accessed per row activation
system.mem_ctrl.bytesPerActivate::256-319         5199      3.39%     97.05% # Bytes accessed per row activation
system.mem_ctrl.bytesPerActivate::320-383         4358      2.84%     99.89% # Bytes accessed per row activation
system.mem_ctrl.bytesPerActivate::384-447           38      0.02%     99.92% # Bytes accessed per row activation
system.mem_ctrl.bytesPerActivate::448-511           42      0.03%     99.94% # Bytes accessed per row activation
system.mem_ctrl.bytesPerActivate::512-575           86      0.06%    100.00% # Bytes accessed per row activation
system.mem_ctrl.bytesPerActivate::total        153242                       # Bytes accessed per row activation
system.mem_ctrl.rdPerTurnAround::samples          178                       # Reads before turning the bus around for writes
system.mem_ctrl.rdPerTurnAround::mean     2229.651685                       # Reads before turning the bus around for writes
system.mem_ctrl.rdPerTurnAround::gmean     497.411951                       # Reads before turning the bus around for writes
system.mem_ctrl.rdPerTurnAround::stdev    3336.954116                       # Reads before turning the bus around for writes
system.mem_ctrl.rdPerTurnAround::0-1023            89     50.00%     50.00% # Reads before turning the bus around for writes
system.mem_ctrl.rdPerTurnAround::1024-2047           24     13.48%     63.48% # Reads before turning the bus around for writes
system.mem_ctrl.rdPerTurnAround::2048-3071           19     10.67%     74.16% # Reads before turning the bus around for writes
system.mem_ctrl.rdPerTurnAround::3072-4095            1      0.56%     74.72% # Reads before turning the bus around for writes
system.mem_ctrl.rdPerTurnAround::4096-5119            2      1.12%     75.84% # Reads before turning the bus around for writes
system.mem_ctrl.rdPerTurnAround::5120-6143           16      8.99%     84.83% # Reads before turning the bus around for writes
system.mem_ctrl.rdPerTurnAround::6144-7167           24     13.48%     98.31% # Reads before turning the bus around for writes
system.mem_ctrl.rdPerTurnAround::8192-9215            2      1.12%     99.44% # Reads before turning the bus around for writes
system.mem_ctrl.rdPerTurnAround::31744-32767            1      0.56%    100.00% # Reads before turning the bus around for writes
system.mem_ctrl.rdPerTurnAround::total            178                       # Reads before turning the bus around for writes
system.mem_ctrl.wrPerTurnAround::samples          178                       # Writes before turning the bus around for reads
system.mem_ctrl.wrPerTurnAround::mean       17.308989                       # Writes before turning the bus around for reads
system.mem_ctrl.wrPerTurnAround::gmean      17.281731                       # Writes before turning the bus around for reads
system.mem_ctrl.wrPerTurnAround::stdev       0.962593                       # Writes before turning the bus around for reads
system.mem_ctrl.wrPerTurnAround::16                62     34.83%     34.83% # Writes before turning the bus around for reads
system.mem_ctrl.wrPerTurnAround::18               115     64.61%     99.44% # Writes before turning the bus around for reads
system.mem_ctrl.wrPerTurnAround::19                 1      0.56%    100.00% # Writes before turning the bus around for reads
system.mem_ctrl.wrPerTurnAround::total            178                       # Writes before turning the bus around for reads
system.mem_ctrl.bytesReadDRAM                12877760                       # Total number of bytes read from DRAM
system.mem_ctrl.bytesReadWrQ                        0                       # Total number of bytes read from write queue
system.mem_ctrl.bytesWritten                    98592                       # Total number of bytes written to DRAM
system.mem_ctrl.bytesReadSys                 12877760                       # Total read bytes from the system interface side
system.mem_ctrl.bytesWrittenSys                 99392                       # Total written bytes from the system interface side
system.mem_ctrl.avgRdBW                        160.33                       # Average DRAM read bandwidth in MiByte/s
system.mem_ctrl.avgWrBW                          1.23                       # Average achieved write bandwidth in MiByte/s
system.mem_ctrl.avgRdBWSys                     160.33                       # Average system read bandwidth in MiByte/s
system.mem_ctrl.avgWrBWSys                       1.24                       # Average system write bandwidth in MiByte/s
system.mem_ctrl.peakBW                        8000.00                       # Theoretical peak bandwidth in MiByte/s
system.mem_ctrl.busUtil                          2.02                       # Data bus utilization in percentage
system.mem_ctrl.busUtilRead                      2.00                       # Data bus utilization in percentage for reads
system.mem_ctrl.busUtilWrite                     0.02                       # Data bus utilization in percentage for writes
system.mem_ctrl.totGap                    80321089000                       # Total gap between requests
system.mem_ctrl.avgGap                      396123.10                       # Average gap between requests
system.mem_ctrl.masterReadBytes::.cpu.inst        23296                       # Per-master bytes read from memory
system.mem_ctrl.masterReadBytes::.cpu.data     12854464                       # Per-master bytes read from memory
system.mem_ctrl.masterWriteBytes::.writebacks        98592                       # Per-master bytes write to memory
system.mem_ctrl.masterReadRate::.cpu.inst 290035.503826692060                       # Per-master bytes read from memory rate (Bytes/sec)
system.mem_ctrl.masterReadRate::.cpu.data 160038244.448062986135                       # Per-master bytes read from memory rate (Bytes/sec)
system.mem_ctrl.masterWriteRate::.writebacks 1227471.685837964527                       # Per-master bytes write to memory rate (Bytes/sec)
system.mem_ctrl.masterReadAccesses::.cpu.inst          728                       # Per-master read serviced memory accesses
system.mem_ctrl.masterReadAccesses::.cpu.data       401702                       # Per-master read serviced memory accesses
system.mem_ctrl.masterWriteAccesses::.writebacks         3106                       # Per-master write serviced memory accesses
system.mem_ctrl.masterReadTotalLat::.cpu.inst     24154000                       # Per-master read total memory access latency
system.mem_ctrl.masterReadTotalLat::.cpu.data  19392690000                       # Per-master read total memory access latency
system.mem_ctrl.masterWriteTotalLat::.writebacks 1749042421000                       # Per-master write total memory access latency
system.mem_ctrl.masterReadAvgLat::.cpu.inst     33178.57                       # Per-master read average memory access latency
system.mem_ctrl.masterReadAvgLat::.cpu.data     48276.31                       # Per-master read average memory access latency
system.mem_ctrl.masterWriteAvgLat::.writebacks 563117328.07                       # Per-master write average memory access latency
system.mem_ctrl.pageHitRate                     62.20                       # Row buffer hit rate, read and write combined
system.mem_ctrl.rank0.actEnergy                     0                       # Energy for activate commands per rank (pJ)
system.mem_ctrl.rank0.preEnergy                     0                       # Energy for precharge commands per rank (pJ)
system.mem_ctrl.rank0.readEnergy                    0                       # Energy for read commands per rank (pJ)
system.mem_ctrl.rank0.writeEnergy                   0                       # Energy for write commands per rank (pJ)
system.mem_ctrl.rank0.refreshEnergy                 0                       # Energy for refresh commands per rank (pJ)
system.mem_ctrl.rank0.actBackEnergy                 0                       # Energy for active background per rank (pJ)
system.mem_ctrl.rank0.preBackEnergy                 0                       # Energy for precharge background per rank (pJ)
system.mem_ctrl.rank0.actPowerDownEnergy            0                       # Energy for active power-down per rank (pJ)
system.mem_ctrl.rank0.prePowerDownEnergy            0                       # Energy for precharge power-down per rank (pJ)
system.mem_ctrl.rank0.selfRefreshEnergy             0                       # Energy for self refresh per rank (pJ)
system.mem_ctrl.rank0.totalEnergy                   0                       # Total energy per rank (pJ)
system.mem_ctrl.rank0.averagePower                  0                       # Core power per rank (mW)
system.mem_ctrl.rank0.totalIdleTime                 0                       # Total Idle time Per DRAM Rank
system.mem_ctrl.rank0.memoryStateTime::IDLE   2636814000                       # Time in different power states
system.mem_ctrl.rank0.memoryStateTime::REF   5375240000                       # Time in different power states
system.mem_ctrl.rank0.memoryStateTime::SREF            0                       # Time in different power states
system.mem_ctrl.rank0.memoryStateTime::PRE_PDN            0                       # Time in different power states
system.mem_ctrl.rank0.memoryStateTime::ACT  72309147000                       # Time in different power states
system.mem_ctrl.rank0.memoryStateTime::ACT_PDN            0                       # Time in different power states

---------- End Simulation Statistics   ----------
