
---------- Begin Simulation Statistics ----------
final_tick                                24963223000                       # Number of ticks from beginning of simulation (restored from checkpoints and never reset)
host_inst_rate                                 191227                       # Simulator instruction rate (inst/s)
host_mem_usage                                 795164                       # Number of bytes of host memory used
host_op_rate                                   314218                       # Simulator op (including micro ops) rate (op/s)
host_seconds                                    64.41                       # Real time elapsed on the host
host_tick_rate                              387552014                       # Simulator tick rate (ticks/s)
sim_freq                                 1000000000000                       # Frequency of simulated ticks
sim_insts                                    12317376                       # Number of instructions simulated
sim_ops                                      20239614                       # Number of ops (including micro ops) simulated
sim_seconds                                  0.024963                       # Number of seconds simulated
sim_ticks                                 24963223000                       # Number of ticks simulated
system.cpu.branchPred.BTBCorrect                    0                       # Number of correct BTB predictions (this stat may not work properly.
system.cpu.branchPred.BTBHitPct              0.000000                       # BTB Hit Percentage
system.cpu.branchPred.BTBHits                       0                       # Number of BTB hits
system.cpu.branchPred.BTBLookups              2267260                       # Number of BTB lookups
system.cpu.branchPred.RASInCorrect                  1                       # Number of incorrect RAS predictions.
system.cpu.branchPred.condIncorrect               923                       # Number of conditional branches incorrect
system.cpu.branchPred.condPredicted           2267108                       # Number of conditional branches predicted
system.cpu.branchPred.indirectHits            2264698                       # Number of indirect target hits.
system.cpu.branchPred.indirectLookups         2267260                       # Number of indirect predictor lookups.
system.cpu.branchPred.indirectMisses             2562                       # Number of indirect misses.
system.cpu.branchPred.lookups                 2267754                       # Number of BP lookups
system.cpu.branchPred.usedRAS                     222                       # Number of times the RAS was used to get a target.
system.cpu.branchPredindirectMispredicted          505                       # Number of mispredicted indirect branches.
system.cpu.cc_regfile_reads                  11321491                       # number of cc regfile reads
system.cpu.cc_regfile_writes                 13581842                       # number of cc regfile writes
system.cpu.commit.amos                              0                       # Number of atomic instructions committed
system.cpu.commit.branchMispredicts               935                       # The number of times a branch was mispredicted
system.cpu.commit.branches                    2263526                       # Number of branches committed
system.cpu.commit.bw_lim_events                754634                       # number cycles where commit BW limit reached
system.cpu.commit.commitNonSpecStalls               9                       # The number of times commit has been forced to stall to communicate backwards
system.cpu.commit.commitSquashedInsts           20839                       # The number of squashed insts skipped by commit
system.cpu.commit.committedInsts             12317376                       # Number of instructions committed
system.cpu.commit.committedOps               20239614                       # Number of ops (including micro ops) committed
system.cpu.commit.committed_per_cycle::samples     24945731                       # Number of insts commited each cycle
system.cpu.commit.committed_per_cycle::mean     0.811346                       # Number of insts commited each cycle
system.cpu.commit.committed_per_cycle::stdev     1.889768                       # Number of insts commited each cycle
system.cpu.commit.committed_per_cycle::underflows            0      0.00%      0.00% # Number of insts commited each cycle
system.cpu.commit.committed_per_cycle::0     19766044     79.24%     79.24% # Number of insts commited each cycle
system.cpu.commit.committed_per_cycle::1       849358      3.40%     82.64% # Number of insts commited each cycle
system.cpu.commit.committed_per_cycle::2       967094      3.88%     86.52% # Number of insts commited each cycle
system.cpu.commit.committed_per_cycle::3       849238      3.40%     89.92% # Number of insts commited each cycle
system.cpu.commit.committed_per_cycle::4         1566      0.01%     89.93% # Number of insts commited each cycle
system.cpu.commit.committed_per_cycle::5      1703891      6.83%     96.76% # Number of insts commited each cycle
system.cpu.commit.committed_per_cycle::6        31779      0.13%     96.89% # Number of insts commited each cycle
system.cpu.commit.committed_per_cycle::7        22127      0.09%     96.97% # Number of insts commited each cycle
system.cpu.commit.committed_per_cycle::8       754634      3.03%    100.00% # Number of insts commited each cycle
system.cpu.commit.committed_per_cycle::overflows            0      0.00%    100.00% # Number of insts commited each cycle
system.cpu.commit.committed_per_cycle::min_value            0                       # Number of insts commited each cycle
system.cpu.commit.committed_per_cycle::max_value            8                       # Number of insts commited each cycle
system.cpu.commit.committed_per_cycle::total     24945731                       # Number of insts commited each cycle
system.cpu.commit.fp_insts                    2125293                       # Number of committed floating point instructions.
system.cpu.commit.function_calls                   92                       # Number of function calls committed.
system.cpu.commit.int_insts                  18239305                       # Number of committed integer instructions.
system.cpu.commit.loads                        126832                       # Number of loads committed
system.cpu.commit.membars                           0                       # Number of memory barriers committed
system.cpu.commit.op_class_0::No_OpClass          214      0.00%      0.00% # Class of committed instruction
system.cpu.commit.op_class_0::IntAlu         16412528     81.09%     81.09% # Class of committed instruction
system.cpu.commit.op_class_0::IntMult            1004      0.00%     81.10% # Class of committed instruction
system.cpu.commit.op_class_0::IntDiv               21      0.00%     81.10% # Class of committed instruction
system.cpu.commit.op_class_0::FloatAdd              2      0.00%     81.10% # Class of committed instruction
system.cpu.commit.op_class_0::FloatCmp              0      0.00%     81.10% # Class of committed instruction
system.cpu.commit.op_class_0::FloatCvt              0      0.00%     81.10% # Class of committed instruction
system.cpu.commit.op_class_0::FloatMult             0      0.00%     81.10% # Class of committed instruction
system.cpu.commit.op_class_0::FloatMultAcc            0      0.00%     81.10% # Class of committed instruction
system.cpu.commit.op_class_0::FloatDiv              0      0.00%     81.10% # Class of committed instruction
system.cpu.commit.op_class_0::FloatMisc             0      0.00%     81.10% # Class of committed instruction
system.cpu.commit.op_class_0::FloatSqrt             0      0.00%     81.10% # Class of committed instruction
system.cpu.commit.op_class_0::SimdAdd          499996      2.47%     83.57% # Class of committed instruction
system.cpu.commit.op_class_0::SimdAddAcc            0      0.00%     83.57% # Class of committed instruction
system.cpu.commit.op_class_0::SimdAlu          125048      0.62%     84.19% # Class of committed instruction
system.cpu.commit.op_class_0::SimdCmp               0      0.00%     84.19% # Class of committed instruction
system.cpu.commit.op_class_0::SimdCvt          125028      0.62%     84.80% # Class of committed instruction
system.cpu.commit.op_class_0::SimdMisc         750032      3.71%     88.51% # Class of committed instruction
system.cpu.commit.op_class_0::SimdMult              0      0.00%     88.51% # Class of committed instruction
system.cpu.commit.op_class_0::SimdMultAcc            0      0.00%     88.51% # Class of committed instruction
system.cpu.commit.op_class_0::SimdShift             6      0.00%     88.51% # Class of committed instruction
system.cpu.commit.op_class_0::SimdShiftAcc            0      0.00%     88.51% # Class of committed instruction
system.cpu.commit.op_class_0::SimdDiv               0      0.00%     88.51% # Class of committed instruction
system.cpu.commit.op_class_0::SimdSqrt              0      0.00%     88.51% # Class of committed instruction
system.cpu.commit.op_class_0::SimdFloatAdd            0      0.00%     88.51% # Class of committed instruction
system.cpu.commit.op_class_0::SimdFloatAlu            0      0.00%     88.51% # Class of committed instruction
system.cpu.commit.op_class_0::SimdFloatCmp            0      0.00%     88.51% # Class of committed instruction
system.cpu.commit.op_class_0::SimdFloatCvt            0      0.00%     88.51% # Class of committed instruction
system.cpu.commit.op_class_0::SimdFloatDiv            0      0.00%     88.51% # Class of committed instruction
system.cpu.commit.op_class_0::SimdFloatMisc            0      0.00%     88.51% # Class of committed instruction
system.cpu.commit.op_class_0::SimdFloatMult            0      0.00%     88.51% # Class of committed instruction
system.cpu.commit.op_class_0::SimdFloatMultAcc            0      0.00%     88.51% # Class of committed instruction
system.cpu.commit.op_class_0::SimdFloatSqrt            0      0.00%     88.51% # Class of committed instruction
system.cpu.commit.op_class_0::SimdReduceAdd            0      0.00%     88.51% # Class of committed instruction
system.cpu.commit.op_class_0::SimdReduceAlu            0      0.00%     88.51% # Class of committed instruction
system.cpu.commit.op_class_0::SimdReduceCmp            0      0.00%     88.51% # Class of committed instruction
system.cpu.commit.op_class_0::SimdFloatReduceAdd            0      0.00%     88.51% # Class of committed instruction
system.cpu.commit.op_class_0::SimdFloatReduceCmp            0      0.00%     88.51% # Class of committed instruction
system.cpu.commit.op_class_0::SimdAes               0      0.00%     88.51% # Class of committed instruction
system.cpu.commit.op_class_0::SimdAesMix            0      0.00%     88.51% # Class of committed instruction
system.cpu.commit.op_class_0::SimdSha1Hash            0      0.00%     88.51% # Class of committed instruction
system.cpu.commit.op_class_0::SimdSha1Hash2            0      0.00%     88.51% # Class of committed instruction
system.cpu.commit.op_class_0::SimdSha256Hash            0      0.00%     88.51% # Class of committed instruction
system.cpu.commit.op_class_0::SimdSha256Hash2            0      0.00%     88.51% # Class of committed instruction
system.cpu.commit.op_class_0::SimdShaSigma2            0      0.00%     88.51% # Class of committed instruction
system.cpu.commit.op_class_0::SimdShaSigma3            0      0.00%     88.51% # Class of committed instruction
system.cpu.commit.op_class_0::SimdPredAlu            0      0.00%     88.51% # Class of committed instruction
system.cpu.commit.op_class_0::MemRead            1806      0.01%     88.52% # Class of committed instruction
system.cpu.commit.op_class_0::MemWrite        2198750     10.86%     99.38% # Class of committed instruction
system.cpu.commit.op_class_0::FloatMemRead       125026      0.62%    100.00% # Class of committed instruction
system.cpu.commit.op_class_0::FloatMemWrite          153      0.00%    100.00% # Class of committed instruction
system.cpu.commit.op_class_0::IprAccess             0      0.00%    100.00% # Class of committed instruction
system.cpu.commit.op_class_0::InstPrefetch            0      0.00%    100.00% # Class of committed instruction
system.cpu.commit.op_class_0::total          20239614                       # Class of committed instruction
system.cpu.commit.refs                        2325735                       # Number of memory references committed
system.cpu.commit.swp_count                         0                       # Number of s/w prefetches committed
system.cpu.commit.vec_insts                         0                       # Number of committed Vector instructions.
system.cpu.committedInsts                    12317376                       # Number of Instructions Simulated
system.cpu.committedOps                      20239614                       # Number of Ops (including micro ops) Simulated
system.cpu.cpi                               2.026667                       # CPI: Cycles Per Instruction
system.cpu.cpi_total                         2.026667                       # CPI: Total CPI of All Threads
system.cpu.decode.BlockedCycles              21525646                       # Number of cycles decode is blocked
system.cpu.decode.DecodedInsts               20270023                       # Number of instructions handled by decode
system.cpu.decode.IdleCycles                   862859                       # Number of cycles decode is idle
system.cpu.decode.RunCycles                    685205                       # Number of cycles decode is running
system.cpu.decode.SquashCycles                    941                       # Number of cycles decode is squashing
system.cpu.decode.UnblockCycles               1874381                       # Number of cycles decode is unblocking
system.cpu.dtb.rdAccesses                      127735                       # TLB accesses on read requests
system.cpu.dtb.rdMisses                           472                       # TLB misses on read requests
system.cpu.dtb.wrAccesses                     2199574                       # TLB accesses on write requests
system.cpu.dtb.wrMisses                         40993                       # TLB misses on write requests
system.cpu.fetch.Branches                     2267754                       # Number of branches that fetch encountered
system.cpu.fetch.CacheLines                    130081                       # Number of cache lines fetched
system.cpu.fetch.Cycles                      24808058                       # Number of cycles fetch has run and was not squashing or blocked
system.cpu.fetch.IcacheSquashes                   431                       # Number of outstanding Icache misses that were squashed
system.cpu.fetch.Insts                       12339603                       # Number of instructions fetch has processed
system.cpu.fetch.MiscStallCycles                   15                       # Number of cycles fetch has spent waiting on interrupts, or bad addresses, or out of MSHRs
system.cpu.fetch.PendingQuiesceStallCycles           15                       # Number of stall cycles due to pending quiesce instructions
system.cpu.fetch.PendingTrapStallCycles            80                       # Number of stall cycles due to pending traps
system.cpu.fetch.SquashCycles                    1882                       # Number of cycles fetch has spent squashing
system.cpu.fetch.branchRate                  0.090844                       # Number of branch fetches per cycle
system.cpu.fetch.icacheStallCycles             139923                       # Number of cycles fetch is stalled on an Icache miss
system.cpu.fetch.predictedBranches            2264920                       # Number of branches that fetch has predicted taken
system.cpu.fetch.rate                        0.494311                       # Number of inst fetches per cycle
system.cpu.fetch.rateDist::samples           24949032                       # Number of instructions fetched each cycle (Total)
system.cpu.fetch.rateDist::mean              0.812884                       # Number of instructions fetched each cycle (Total)
system.cpu.fetch.rateDist::stdev             2.363668                       # Number of instructions fetched each cycle (Total)
system.cpu.fetch.rateDist::underflows               0      0.00%      0.00% # Number of instructions fetched each cycle (Total)
system.cpu.fetch.rateDist::0                 22054247     88.40%     88.40% # Number of instructions fetched each cycle (Total)
system.cpu.fetch.rateDist::1                   258589      1.04%     89.43% # Number of instructions fetched each cycle (Total)
system.cpu.fetch.rateDist::2                    53289      0.21%     89.65% # Number of instructions fetched each cycle (Total)
system.cpu.fetch.rateDist::3                    54979      0.22%     89.87% # Number of instructions fetched each cycle (Total)
system.cpu.fetch.rateDist::4                      265      0.00%     89.87% # Number of instructions fetched each cycle (Total)
system.cpu.fetch.rateDist::5                    17149      0.07%     89.94% # Number of instructions fetched each cycle (Total)
system.cpu.fetch.rateDist::6                    53496      0.21%     90.15% # Number of instructions fetched each cycle (Total)
system.cpu.fetch.rateDist::7                   313355      1.26%     91.41% # Number of instructions fetched each cycle (Total)
system.cpu.fetch.rateDist::8                  2143663      8.59%    100.00% # Number of instructions fetched each cycle (Total)
system.cpu.fetch.rateDist::overflows                0      0.00%    100.00% # Number of instructions fetched each cycle (Total)
system.cpu.fetch.rateDist::min_value                0                       # Number of instructions fetched each cycle (Total)
system.cpu.fetch.rateDist::max_value                8                       # Number of instructions fetched each cycle (Total)
system.cpu.fetch.rateDist::total             24949032                       # Number of instructions fetched each cycle (Total)
system.cpu.fp_regfile_reads                   4625543                       # number of floating regfile reads
system.cpu.fp_regfile_writes                  2125215                       # number of floating regfile writes
system.cpu.idleCycles                           14192                       # Total number of cycles that the CPU has spent unscheduled due to idling
system.cpu.iew.branchMispredicts                 1102                       # Number of branch mispredicts detected at execute
system.cpu.iew.exec_branches                  2264369                       # Number of branches executed
system.cpu.iew.exec_nop                             0                       # number of nop insts executed
system.cpu.iew.exec_rate                     0.811310                       # Inst execution rate
system.cpu.iew.exec_refs                      2327315                       # number of memory reference insts executed
system.cpu.iew.exec_stores                    2199573                       # Number of stores executed
system.cpu.iew.exec_swp                             0                       # number of swp insts executed
system.cpu.iew.iewBlockCycles                  211363                       # Number of cycles IEW is blocking
system.cpu.iew.iewDispLoadInsts                128456                       # Number of dispatched load instructions
system.cpu.iew.iewDispNonSpecInsts                 37                       # Number of dispatched non-speculative instructions
system.cpu.iew.iewDispSquashedInsts                82                       # Number of squashed instructions skipped by dispatch
system.cpu.iew.iewDispStoreInsts              2200071                       # Number of dispatched store instructions
system.cpu.iew.iewDispatchedInsts            20259981                       # Number of instructions dispatched to IQ
system.cpu.iew.iewExecLoadInsts                127742                       # Number of load instructions executed
system.cpu.iew.iewExecSquashedInsts              1762                       # Number of squashed instructions skipped in execute
system.cpu.iew.iewExecutedInsts              20252925                       # Number of executed instructions
system.cpu.iew.iewIQFullEvents                    521                       # Number of times the IQ has become full, causing a stall
system.cpu.iew.iewIdleCycles                        0                       # Number of cycles IEW is idle
system.cpu.iew.iewLSQFullEvents               6176521                       # Number of times the LSQ has become full, causing a stall
system.cpu.iew.iewSquashCycles                    941                       # Number of cycles IEW is squashing
system.cpu.iew.iewUnblockCycles               6177145                       # Number of cycles IEW is unblocking
system.cpu.iew.lsq.thread0.blockedLoads             0                       # Number of blocked loads due to partial load-store forwarding
system.cpu.iew.lsq.thread0.cacheBlocked             5                       # Number of times an access to memory failed due to the cache being blocked
system.cpu.iew.lsq.thread0.forwLoads               69                       # Number of loads that had data forwarded from stores
system.cpu.iew.lsq.thread0.ignoredResponses            1                       # Number of memory responses ignored because the instruction is squashed
system.cpu.iew.lsq.thread0.invAddrLoads             0                       # Number of loads ignored due to an invalid address
system.cpu.iew.lsq.thread0.invAddrSwpfs             0                       # Number of software prefetches ignored due to an invalid address
system.cpu.iew.lsq.thread0.memOrderViolation            5                       # Number of memory ordering violations
system.cpu.iew.lsq.thread0.rescheduledLoads            3                       # Number of loads that were rescheduled
system.cpu.iew.lsq.thread0.squashedLoads         1624                       # Number of loads squashed
system.cpu.iew.lsq.thread0.squashedStores         1168                       # Number of stores squashed
system.cpu.iew.memOrderViolationEvents              5                       # Number of memory order violations
system.cpu.iew.predictedNotTakenIncorrect          754                       # Number of branches that were predicted not taken incorrectly
system.cpu.iew.predictedTakenIncorrect            348                       # Number of branches that were predicted taken incorrectly
system.cpu.iew.wb_consumers                  17336084                       # num instructions consuming a value
system.cpu.iew.wb_count                      20252453                       # cumulative count of insts written-back
system.cpu.iew.wb_fanout                     0.662881                       # average fanout of values written-back
system.cpu.iew.wb_producers                  11491754                       # num instructions producing a value
system.cpu.iew.wb_rate                       0.811292                       # insts written-back per cycle
system.cpu.iew.wb_sent                       20252648                       # cumulative count of insts sent to commit
system.cpu.int_regfile_reads                 27187366                       # number of integer regfile reads
system.cpu.int_regfile_writes                13664300                       # number of integer regfile writes
system.cpu.ipc                               0.493421                       # IPC: Instructions Per Cycle
system.cpu.ipc_total                         0.493421                       # IPC: Total IPC of All Threads
system.cpu.iq.FU_type_0::No_OpClass               532      0.00%      0.00% # Type of FU issued
system.cpu.iq.FU_type_0::IntAlu              16424873     81.09%     81.09% # Type of FU issued
system.cpu.iq.FU_type_0::IntMult                 1316      0.01%     81.10% # Type of FU issued
system.cpu.iq.FU_type_0::IntDiv                    22      0.00%     81.10% # Type of FU issued
system.cpu.iq.FU_type_0::FloatAdd                  26      0.00%     81.10% # Type of FU issued
system.cpu.iq.FU_type_0::FloatCmp                   0      0.00%     81.10% # Type of FU issued
system.cpu.iq.FU_type_0::FloatCvt                   0      0.00%     81.10% # Type of FU issued
system.cpu.iq.FU_type_0::FloatMult                  0      0.00%     81.10% # Type of FU issued
system.cpu.iq.FU_type_0::FloatMultAcc               0      0.00%     81.10% # Type of FU issued
system.cpu.iq.FU_type_0::FloatDiv                   0      0.00%     81.10% # Type of FU issued
system.cpu.iq.FU_type_0::FloatMisc                  0      0.00%     81.10% # Type of FU issued
system.cpu.iq.FU_type_0::FloatSqrt                  0      0.00%     81.10% # Type of FU issued
system.cpu.iq.FU_type_0::SimdAdd               499996      2.47%     83.57% # Type of FU issued
system.cpu.iq.FU_type_0::SimdAddAcc                 0      0.00%     83.57% # Type of FU issued
system.cpu.iq.FU_type_0::SimdAlu               125115      0.62%     84.19% # Type of FU issued
system.cpu.iq.FU_type_0::SimdCmp                    0      0.00%     84.19% # Type of FU issued
system.cpu.iq.FU_type_0::SimdCvt               125049      0.62%     84.80% # Type of FU issued
system.cpu.iq.FU_type_0::SimdMisc              750052      3.70%     88.51% # Type of FU issued
system.cpu.iq.FU_type_0::SimdMult                   0      0.00%     88.51% # Type of FU issued
system.cpu.iq.FU_type_0::SimdMultAcc                0      0.00%     88.51% # Type of FU issued
system.cpu.iq.FU_type_0::SimdShift                 13      0.00%     88.51% # Type of FU issued
system.cpu.iq.FU_type_0::SimdShiftAcc               0      0.00%     88.51% # Type of FU issued
system.cpu.iq.FU_type_0::SimdDiv                    0      0.00%     88.51% # Type of FU issued
system.cpu.iq.FU_type_0::SimdSqrt                   0      0.00%     88.51% # Type of FU issued
system.cpu.iq.FU_type_0::SimdFloatAdd               0      0.00%     88.51% # Type of FU issued
system.cpu.iq.FU_type_0::SimdFloatAlu               0      0.00%     88.51% # Type of FU issued
system.cpu.iq.FU_type_0::SimdFloatCmp               0      0.00%     88.51% # Type of FU issued
system.cpu.iq.FU_type_0::SimdFloatCvt               0      0.00%     88.51% # Type of FU issued
system.cpu.iq.FU_type_0::SimdFloatDiv               0      0.00%     88.51% # Type of FU issued
system.cpu.iq.FU_type_0::SimdFloatMisc              0      0.00%     88.51% # Type of FU issued
system.cpu.iq.FU_type_0::SimdFloatMult              0      0.00%     88.51% # Type of FU issued
system.cpu.iq.FU_type_0::SimdFloatMultAcc            0      0.00%     88.51% # Type of FU issued
system.cpu.iq.FU_type_0::SimdFloatSqrt              0      0.00%     88.51% # Type of FU issued
system.cpu.iq.FU_type_0::SimdReduceAdd              0      0.00%     88.51% # Type of FU issued
system.cpu.iq.FU_type_0::SimdReduceAlu              0      0.00%     88.51% # Type of FU issued
system.cpu.iq.FU_type_0::SimdReduceCmp              0      0.00%     88.51% # Type of FU issued
system.cpu.iq.FU_type_0::SimdFloatReduceAdd            0      0.00%     88.51% # Type of FU issued
system.cpu.iq.FU_type_0::SimdFloatReduceCmp            0      0.00%     88.51% # Type of FU issued
system.cpu.iq.FU_type_0::SimdAes                    0      0.00%     88.51% # Type of FU issued
system.cpu.iq.FU_type_0::SimdAesMix                 0      0.00%     88.51% # Type of FU issued
system.cpu.iq.FU_type_0::SimdSha1Hash               0      0.00%     88.51% # Type of FU issued
system.cpu.iq.FU_type_0::SimdSha1Hash2              0      0.00%     88.51% # Type of FU issued
system.cpu.iq.FU_type_0::SimdSha256Hash             0      0.00%     88.51% # Type of FU issued
system.cpu.iq.FU_type_0::SimdSha256Hash2            0      0.00%     88.51% # Type of FU issued
system.cpu.iq.FU_type_0::SimdShaSigma2              0      0.00%     88.51% # Type of FU issued
system.cpu.iq.FU_type_0::SimdShaSigma3              0      0.00%     88.51% # Type of FU issued
system.cpu.iq.FU_type_0::SimdPredAlu                0      0.00%     88.51% # Type of FU issued
system.cpu.iq.FU_type_0::MemRead                 2923      0.01%     88.52% # Type of FU issued
system.cpu.iq.FU_type_0::MemWrite             2199528     10.86%     99.38% # Type of FU issued
system.cpu.iq.FU_type_0::FloatMemRead          125084      0.62%    100.00% # Type of FU issued
system.cpu.iq.FU_type_0::FloatMemWrite            158      0.00%    100.00% # Type of FU issued
system.cpu.iq.FU_type_0::IprAccess                  0      0.00%    100.00% # Type of FU issued
system.cpu.iq.FU_type_0::InstPrefetch               0      0.00%    100.00% # Type of FU issued
system.cpu.iq.FU_type_0::total               20254687                       # Type of FU issued
system.cpu.iq.fp_alu_accesses                 2374499                       # Number of floating point alu accesses
system.cpu.iq.fp_inst_queue_reads             4499999                       # Number of floating instruction queue reads
system.cpu.iq.fp_inst_queue_wakeup_accesses      2125420                       # Number of floating instruction queue wakeup accesses
system.cpu.iq.fp_inst_queue_writes            2126059                       # Number of floating instruction queue writes
system.cpu.iq.fu_busy_cnt                      261831                       # FU busy when requested
system.cpu.iq.fu_busy_rate                   0.012927                       # FU busy rate (busy events/executed inst)
system.cpu.iq.fu_full::No_OpClass                   0      0.00%      0.00% # attempts to use FU when none available
system.cpu.iq.fu_full::IntAlu                   12798      4.89%      4.89% # attempts to use FU when none available
system.cpu.iq.fu_full::IntMult                      0      0.00%      4.89% # attempts to use FU when none available
system.cpu.iq.fu_full::IntDiv                       0      0.00%      4.89% # attempts to use FU when none available
system.cpu.iq.fu_full::FloatAdd                     0      0.00%      4.89% # attempts to use FU when none available
system.cpu.iq.fu_full::FloatCmp                     0      0.00%      4.89% # attempts to use FU when none available
system.cpu.iq.fu_full::FloatCvt                     0      0.00%      4.89% # attempts to use FU when none available
system.cpu.iq.fu_full::FloatMult                    0      0.00%      4.89% # attempts to use FU when none available
system.cpu.iq.fu_full::FloatMultAcc                 0      0.00%      4.89% # attempts to use FU when none available
system.cpu.iq.fu_full::FloatDiv                     0      0.00%      4.89% # attempts to use FU when none available
system.cpu.iq.fu_full::FloatMisc                    0      0.00%      4.89% # attempts to use FU when none available
system.cpu.iq.fu_full::FloatSqrt                    0      0.00%      4.89% # attempts to use FU when none available
system.cpu.iq.fu_full::SimdAdd                      0      0.00%      4.89% # attempts to use FU when none available
system.cpu.iq.fu_full::SimdAddAcc                   0      0.00%      4.89% # attempts to use FU when none available
system.cpu.iq.fu_full::SimdAlu                  93048     35.54%     40.43% # attempts to use FU when none available
system.cpu.iq.fu_full::SimdCmp                      0      0.00%     40.43% # attempts to use FU when none available
system.cpu.iq.fu_full::SimdCvt                  62506     23.87%     64.30% # attempts to use FU when none available
system.cpu.iq.fu_full::SimdMisc                 93440     35.69%     99.99% # attempts to use FU when none available
system.cpu.iq.fu_full::SimdMult                     0      0.00%     99.99% # attempts to use FU when none available
system.cpu.iq.fu_full::SimdMultAcc                  0      0.00%     99.99% # attempts to use FU when none available
system.cpu.iq.fu_full::SimdShift                    0      0.00%     99.99% # attempts to use FU when none available
system.cpu.iq.fu_full::SimdShiftAcc                 0      0.00%     99.99% # attempts to use FU when none available
system.cpu.iq.fu_full::SimdDiv                      0      0.00%     99.99% # attempts to use FU when none available
system.cpu.iq.fu_full::SimdSqrt                     0      0.00%     99.99% # attempts to use FU when none available
system.cpu.iq.fu_full::SimdFloatAdd                 0      0.00%     99.99% # attempts to use FU when none available
system.cpu.iq.fu_full::SimdFloatAlu                 0      0.00%     99.99% # attempts to use FU when none available
system.cpu.iq.fu_full::SimdFloatCmp                 0      0.00%     99.99% # attempts to use FU when none available
system.cpu.iq.fu_full::SimdFloatCvt                 0      0.00%     99.99% # attempts to use FU when none available
system.cpu.iq.fu_full::SimdFloatDiv                 0      0.00%     99.99% # attempts to use FU when none available
system.cpu.iq.fu_full::SimdFloatMisc                0      0.00%     99.99% # attempts to use FU when none available
system.cpu.iq.fu_full::SimdFloatMult                0      0.00%     99.99% # attempts to use FU when none available
system.cpu.iq.fu_full::SimdFloatMultAcc             0      0.00%     99.99% # attempts to use FU when none available
system.cpu.iq.fu_full::SimdFloatSqrt                0      0.00%     99.99% # attempts to use FU when none available
system.cpu.iq.fu_full::SimdReduceAdd                0      0.00%     99.99% # attempts to use FU when none available
system.cpu.iq.fu_full::SimdReduceAlu                0      0.00%     99.99% # attempts to use FU when none available
system.cpu.iq.fu_full::SimdReduceCmp                0      0.00%     99.99% # attempts to use FU when none available
system.cpu.iq.fu_full::SimdFloatReduceAdd            0      0.00%     99.99% # attempts to use FU when none available
system.cpu.iq.fu_full::SimdFloatReduceCmp            0      0.00%     99.99% # attempts to use FU when none available
system.cpu.iq.fu_full::SimdAes                      0      0.00%     99.99% # attempts to use FU when none available
system.cpu.iq.fu_full::SimdAesMix                   0      0.00%     99.99% # attempts to use FU when none available
system.cpu.iq.fu_full::SimdSha1Hash                 0      0.00%     99.99% # attempts to use FU when none available
system.cpu.iq.fu_full::SimdSha1Hash2                0      0.00%     99.99% # attempts to use FU when none available
system.cpu.iq.fu_full::SimdSha256Hash               0      0.00%     99.99% # attempts to use FU when none available
system.cpu.iq.fu_full::SimdSha256Hash2              0      0.00%     99.99% # attempts to use FU when none available
system.cpu.iq.fu_full::SimdShaSigma2                0      0.00%     99.99% # attempts to use FU when none available
system.cpu.iq.fu_full::SimdShaSigma3                0      0.00%     99.99% # attempts to use FU when none available
system.cpu.iq.fu_full::SimdPredAlu                  0      0.00%     99.99% # attempts to use FU when none available
system.cpu.iq.fu_full::MemRead                      6      0.00%     99.99% # attempts to use FU when none available
system.cpu.iq.fu_full::MemWrite                    27      0.01%    100.00% # attempts to use FU when none available
system.cpu.iq.fu_full::FloatMemRead                 1      0.00%    100.00% # attempts to use FU when none available
system.cpu.iq.fu_full::FloatMemWrite                5      0.00%    100.00% # attempts to use FU when none available
system.cpu.iq.fu_full::IprAccess                    0      0.00%    100.00% # attempts to use FU when none available
system.cpu.iq.fu_full::InstPrefetch                 0      0.00%    100.00% # attempts to use FU when none available
system.cpu.iq.int_alu_accesses               18141487                       # Number of integer alu accesses
system.cpu.iq.int_inst_queue_reads           61220412                       # Number of integer instruction queue reads
system.cpu.iq.int_inst_queue_wakeup_accesses     18127033                       # Number of integer instruction queue wakeup accesses
system.cpu.iq.int_inst_queue_writes          18154293                       # Number of integer instruction queue writes
system.cpu.iq.iqInstsAdded                   20259900                       # Number of instructions added to the IQ (excludes non-spec)
system.cpu.iq.iqInstsIssued                  20254687                       # Number of instructions issued
system.cpu.iq.iqNonSpecInstsAdded                  81                       # Number of non-speculative instructions added to the IQ
system.cpu.iq.iqSquashedInstsExamined           20366                       # Number of squashed instructions iterated over during squash; mainly for profiling
system.cpu.iq.iqSquashedInstsIssued               174                       # Number of squashed instructions issued
system.cpu.iq.iqSquashedNonSpecRemoved             72                       # Number of squashed non-spec instructions that were removed
system.cpu.iq.iqSquashedOperandsExamined        22311                       # Number of squashed operands that are examined and possibly removed from graph
system.cpu.iq.issued_per_cycle::samples      24949032                       # Number of insts issued each cycle
system.cpu.iq.issued_per_cycle::mean         0.811843                       # Number of insts issued each cycle
system.cpu.iq.issued_per_cycle::stdev        1.839220                       # Number of insts issued each cycle
system.cpu.iq.issued_per_cycle::underflows            0      0.00%      0.00% # Number of insts issued each cycle
system.cpu.iq.issued_per_cycle::0            19742207     79.13%     79.13% # Number of insts issued each cycle
system.cpu.iq.issued_per_cycle::1             1048955      4.20%     83.33% # Number of insts issued each cycle
system.cpu.iq.issued_per_cycle::2              844179      3.38%     86.72% # Number of insts issued each cycle
system.cpu.iq.issued_per_cycle::3              182881      0.73%     87.45% # Number of insts issued each cycle
system.cpu.iq.issued_per_cycle::4              607927      2.44%     89.89% # Number of insts issued each cycle
system.cpu.iq.issued_per_cycle::5              916041      3.67%     93.56% # Number of insts issued each cycle
system.cpu.iq.issued_per_cycle::6             1385448      5.55%     99.11% # Number of insts issued each cycle
system.cpu.iq.issued_per_cycle::7              127022      0.51%     99.62% # Number of insts issued each cycle
system.cpu.iq.issued_per_cycle::8               94372      0.38%    100.00% # Number of insts issued each cycle
system.cpu.iq.issued_per_cycle::overflows            0      0.00%    100.00% # Number of insts issued each cycle
system.cpu.iq.issued_per_cycle::min_value            0                       # Number of insts issued each cycle
system.cpu.iq.issued_per_cycle::max_value            8                       # Number of insts issued each cycle
system.cpu.iq.issued_per_cycle::total        24949032                       # Number of insts issued each cycle
system.cpu.iq.rate                           0.811381                       # Inst issue rate
system.cpu.iq.vec_alu_accesses                      0                       # Number of vector alu accesses
system.cpu.iq.vec_inst_queue_reads                  0                       # Number of vector instruction queue reads
system.cpu.iq.vec_inst_queue_wakeup_accesses            0                       # Number of vector instruction queue wakeup accesses
system.cpu.iq.vec_inst_queue_writes                 0                       # Number of vector instruction queue writes
system.cpu.itb.rdAccesses                           0                       # TLB accesses on read requests
system.cpu.itb.rdMisses                             0                       # TLB misses on read requests
system.cpu.itb.wrAccesses                      130096                       # TLB accesses on write requests
system.cpu.itb.wrMisses                            48                       # TLB misses on write requests
system.cpu.memDep0.conflictingLoads                44                       # Number of conflicting loads.
system.cpu.memDep0.conflictingStores               44                       # Number of conflicting stores.
system.cpu.memDep0.insertedLoads               128456                       # Number of loads inserted to the mem dependence unit.
system.cpu.memDep0.insertedStores             2200071                       # Number of stores inserted to the mem dependence unit.
system.cpu.misc_regfile_reads                 6857424                       # number of misc regfile reads
system.cpu.misc_regfile_writes                      1                       # number of misc regfile writes
system.cpu.numCycles                         24963224                       # number of cpu cycles simulated
system.cpu.numWorkItemsCompleted                    0                       # number of work items this cpu completed
system.cpu.numWorkItemsStarted                      0                       # number of work items this cpu started
system.cpu.rename.BlockCycles                 6434476                       # Number of cycles rename is blocking
system.cpu.rename.CommittedMaps              29354697                       # Number of HB maps that are committed
system.cpu.rename.IQFullEvents                  46216                       # Number of times rename has blocked due to IQ full
system.cpu.rename.IdleCycles                  1294627                       # Number of cycles rename is idle
system.cpu.rename.ROBFullEvents                    10                       # Number of times rename has blocked due to ROB full
system.cpu.rename.RenameLookups              50026445                       # Number of register rename lookups that rename has made
system.cpu.rename.RenamedInsts               20265198                       # Number of instructions processed by rename
system.cpu.rename.RenamedOperands            29386961                       # Number of destination operands rename has renamed
system.cpu.rename.RunCycles                   2119800                       # Number of cycles rename is running
system.cpu.rename.SQFullEvents               14613008                       # Number of times rename has blocked due to SQ full
system.cpu.rename.SquashCycles                    941                       # Number of cycles rename is squashing
system.cpu.rename.UnblockCycles              15098171                       # Number of cycles rename is unblocking
system.cpu.rename.UndoneMaps                    32264                       # Number of HB maps that are undone due to squashing
system.cpu.rename.fp_rename_lookups           4626322                       # Number of floating rename lookups
system.cpu.rename.int_rename_lookups         27207600                       # Number of integer rename lookups
system.cpu.rename.serializeStallCycles           1017                       # count of cycles rename stalled for serializing inst
system.cpu.rename.serializingInsts                 22                       # count of serializing insts renamed
system.cpu.rename.skidInsts                  10201393                       # count of insts added to the skid buffer
system.cpu.rename.tempSerializingInsts             17                       # count of temporary serializing insts renamed
system.cpu.rob.rob_reads                     44451550                       # The number of ROB reads
system.cpu.rob.rob_writes                    40524247                       # The number of ROB writes
system.cpu.timesIdled                             173                       # Number of times that the entire CPU went into an idle state and unscheduled itself
system.cpu.workload.numSyscalls                     8                       # Number of system calls
system.l2bus.snoop_filter.hit_multi_requests            2                       # Number of requests hitting in the snoop filter with multiple (>1) holders of the requested data.
system.l2bus.snoop_filter.hit_multi_snoops            0                       # Number of snoops hitting in the snoop filter with multiple (>1) holders of the requested data.
system.l2bus.snoop_filter.hit_single_requests       763218                       # Number of requests hitting in the snoop filter with a single holder of the requested data.
system.l2bus.snoop_filter.hit_single_snoops          214                       # Number of snoops hitting in the snoop filter with a single holder of the requested data.
system.l2bus.snoop_filter.tot_requests        1528819                       # Total number of requests made to the snoop filter.
system.l2bus.snoop_filter.tot_snoops              214                       # Total number of snoops made to the snoop filter.
system.membus.snoop_filter.hit_multi_requests            0                       # Number of requests hitting in the snoop filter with multiple (>1) holders of the requested data.
system.membus.snoop_filter.hit_multi_snoops            0                       # Number of snoops hitting in the snoop filter with multiple (>1) holders of the requested data.
system.membus.snoop_filter.hit_single_requests           41                       # Number of requests hitting in the snoop filter with a single holder of the requested data.
system.membus.snoop_filter.hit_single_snoops            0                       # Number of snoops hitting in the snoop filter with a single holder of the requested data.
system.membus.snoop_filter.tot_requests         16172                       # Total number of requests made to the snoop filter.
system.membus.snoop_filter.tot_snoops               0                       # Total number of snoops made to the snoop filter.
system.membus.pwrStateResidencyTicks::UNDEFINED  24963223000                       # Cumulative time (in ticks) in various power states
system.membus.trans_dist::ReadResp                413                       # Transaction distribution
system.membus.trans_dist::WritebackDirty           24                       # Transaction distribution
system.membus.trans_dist::CleanEvict               17                       # Transaction distribution
system.membus.trans_dist::ReadExReq             15717                       # Transaction distribution
system.membus.trans_dist::ReadExResp            15717                       # Transaction distribution
system.membus.trans_dist::ReadSharedReq           414                       # Transaction distribution
system.membus.pkt_count_system.l2cache.mem_side::system.mem_ctrl.port        32302                       # Packet count per connected master and slave (bytes)
system.membus.pkt_count_system.l2cache.mem_side::total        32302                       # Packet count per connected master and slave (bytes)
system.membus.pkt_count::total                  32302                       # Packet count per connected master and slave (bytes)
system.membus.pkt_size_system.l2cache.mem_side::system.mem_ctrl.port      1033856                       # Cumulative packet size per connected master and slave (bytes)
system.membus.pkt_size_system.l2cache.mem_side::total      1033856                       # Cumulative packet size per connected master and slave (bytes)
system.membus.pkt_size::total                 1033856                       # Cumulative packet size per connected master and slave (bytes)
system.membus.snoops                                0                       # Total snoops (count)
system.membus.snoopTraffic                          0                       # Total snoop traffic (bytes)
system.membus.snoop_fanout::samples             16131                       # Request fanout histogram
system.membus.snoop_fanout::mean                    0                       # Request fanout histogram
system.membus.snoop_fanout::stdev                   0                       # Request fanout histogram
system.membus.snoop_fanout::underflows              0      0.00%      0.00% # Request fanout histogram
system.membus.snoop_fanout::0                   16131    100.00%    100.00% # Request fanout histogram
system.membus.snoop_fanout::1                       0      0.00%    100.00% # Request fanout histogram
system.membus.snoop_fanout::overflows               0      0.00%    100.00% # Request fanout histogram
system.membus.snoop_fanout::min_value               0                       # Request fanout histogram
system.membus.snoop_fanout::max_value               0                       # Request fanout histogram
system.membus.snoop_fanout::total               16131                       # Request fanout histogram
system.membus.reqLayer2.occupancy            16268000                       # Layer occupancy (ticks)
system.membus.reqLayer2.utilization               0.1                       # Layer utilization (%)
system.membus.respLayer0.occupancy           80798000                       # Layer occupancy (ticks)
system.membus.respLayer0.utilization              0.3                       # Layer utilization (%)
system.l2bus.pwrStateResidencyTicks::UNDEFINED  24963223000                       # Cumulative time (in ticks) in various power states
system.l2bus.trans_dist::ReadResp               15989                       # Transaction distribution
system.l2bus.trans_dist::WritebackDirty        763202                       # Transaction distribution
system.l2bus.trans_dist::CleanEvict               271                       # Transaction distribution
system.l2bus.trans_dist::ReadExReq             749610                       # Transaction distribution
system.l2bus.trans_dist::ReadExResp            749610                       # Transaction distribution
system.l2bus.trans_dist::ReadSharedReq          15991                       # Transaction distribution
system.l2bus.pkt_count_system.cpu.icache.mem_side::system.l2cache.cpu_side          667                       # Packet count per connected master and slave (bytes)
system.l2bus.pkt_count_system.cpu.dcache.mem_side::system.l2cache.cpu_side      2293751                       # Packet count per connected master and slave (bytes)
system.l2bus.pkt_count::total                 2294418                       # Packet count per connected master and slave (bytes)
system.l2bus.pkt_size_system.cpu.icache.mem_side::system.l2cache.cpu_side        21312                       # Cumulative packet size per connected master and slave (bytes)
system.l2bus.pkt_size_system.cpu.dcache.mem_side::system.l2cache.cpu_side     97820416                       # Cumulative packet size per connected master and slave (bytes)
system.l2bus.pkt_size::total                 97841728                       # Cumulative packet size per connected master and slave (bytes)
system.l2bus.snoops                               255                       # Total snoops (count)
system.l2bus.snoopTraffic                        1536                       # Total snoop traffic (bytes)
system.l2bus.snoop_fanout::samples             765856                       # Request fanout histogram
system.l2bus.snoop_fanout::mean              0.000282                       # Request fanout histogram
system.l2bus.snoop_fanout::stdev             0.016792                       # Request fanout histogram
system.l2bus.snoop_fanout::underflows               0      0.00%      0.00% # Request fanout histogram
system.l2bus.snoop_fanout::0                   765640     99.97%     99.97% # Request fanout histogram
system.l2bus.snoop_fanout::1                      216      0.03%    100.00% # Request fanout histogram
system.l2bus.snoop_fanout::2                        0      0.00%    100.00% # Request fanout histogram
system.l2bus.snoop_fanout::overflows                0      0.00%    100.00% # Request fanout histogram
system.l2bus.snoop_fanout::min_value                0                       # Request fanout histogram
system.l2bus.snoop_fanout::max_value                1                       # Request fanout histogram
system.l2bus.snoop_fanout::total               765856                       # Request fanout histogram
system.l2bus.respLayer1.occupancy          2295798000                       # Layer occupancy (ticks)
system.l2bus.respLayer1.utilization               9.2                       # Layer utilization (%)
system.l2bus.reqLayer0.occupancy           3055175000                       # Layer occupancy (ticks)
system.l2bus.reqLayer0.utilization               12.2                       # Layer utilization (%)
system.l2bus.respLayer0.occupancy              999000                       # Layer occupancy (ticks)
system.l2bus.respLayer0.utilization               0.0                       # Layer utilization (%)
system.clk_domain.clock                          1000                       # Clock period in ticks
system.clk_domain.voltage_domain.voltage            1                       # Voltage in Volts
system.cpu.pwrStateResidencyTicks::ON     24963223000                       # Cumulative time (in ticks) in various power states
system.cpu.icache.pwrStateResidencyTicks::UNDEFINED  24963223000                       # Cumulative time (in ticks) in various power states
system.cpu.icache.demand_hits::.cpu.inst       129628                       # number of demand (read+write) hits
system.cpu.icache.demand_hits::total           129628                       # number of demand (read+write) hits
system.cpu.icache.overall_hits::.cpu.inst       129628                       # number of overall hits
system.cpu.icache.overall_hits::total          129628                       # number of overall hits
system.cpu.icache.demand_misses::.cpu.inst          453                       # number of demand (read+write) misses
system.cpu.icache.demand_misses::total            453                       # number of demand (read+write) misses
system.cpu.icache.overall_misses::.cpu.inst          453                       # number of overall misses
system.cpu.icache.overall_misses::total           453                       # number of overall misses
system.cpu.icache.demand_miss_latency::.cpu.inst     49131000                       # number of demand (read+write) miss cycles
system.cpu.icache.demand_miss_latency::total     49131000                       # number of demand (read+write) miss cycles
system.cpu.icache.overall_miss_latency::.cpu.inst     49131000                       # number of overall miss cycles
system.cpu.icache.overall_miss_latency::total     49131000                       # number of overall miss cycles
system.cpu.icache.demand_accesses::.cpu.inst       130081                       # number of demand (read+write) accesses
system.cpu.icache.demand_accesses::total       130081                       # number of demand (read+write) accesses
system.cpu.icache.overall_accesses::.cpu.inst       130081                       # number of overall (read+write) accesses
system.cpu.icache.overall_accesses::total       130081                       # number of overall (read+write) accesses
system.cpu.icache.demand_miss_rate::.cpu.inst     0.003482                       # miss rate for demand accesses
system.cpu.icache.demand_miss_rate::total     0.003482                       # miss rate for demand accesses
system.cpu.icache.overall_miss_rate::.cpu.inst     0.003482                       # miss rate for overall accesses
system.cpu.icache.overall_miss_rate::total     0.003482                       # miss rate for overall accesses
system.cpu.icache.demand_avg_miss_latency::.cpu.inst 108456.953642                       # average overall miss latency
system.cpu.icache.demand_avg_miss_latency::total 108456.953642                       # average overall miss latency
system.cpu.icache.overall_avg_miss_latency::.cpu.inst 108456.953642                       # average overall miss latency
system.cpu.icache.overall_avg_miss_latency::total 108456.953642                       # average overall miss latency
system.cpu.icache.blocked_cycles::no_mshrs          127                       # number of cycles access was blocked
system.cpu.icache.blocked_cycles::no_targets            0                       # number of cycles access was blocked
system.cpu.icache.blocked::no_mshrs                 4                       # number of cycles access was blocked
system.cpu.icache.blocked::no_targets               0                       # number of cycles access was blocked
system.cpu.icache.avg_blocked_cycles::no_mshrs    31.750000                       # average number of cycles each access was blocked
system.cpu.icache.avg_blocked_cycles::no_targets          nan                       # average number of cycles each access was blocked
system.cpu.icache.demand_mshr_hits::.cpu.inst          119                       # number of demand (read+write) MSHR hits
system.cpu.icache.demand_mshr_hits::total          119                       # number of demand (read+write) MSHR hits
system.cpu.icache.overall_mshr_hits::.cpu.inst          119                       # number of overall MSHR hits
system.cpu.icache.overall_mshr_hits::total          119                       # number of overall MSHR hits
system.cpu.icache.demand_mshr_misses::.cpu.inst          334                       # number of demand (read+write) MSHR misses
system.cpu.icache.demand_mshr_misses::total          334                       # number of demand (read+write) MSHR misses
system.cpu.icache.overall_mshr_misses::.cpu.inst          334                       # number of overall MSHR misses
system.cpu.icache.overall_mshr_misses::total          334                       # number of overall MSHR misses
system.cpu.icache.demand_mshr_miss_latency::.cpu.inst     38059000                       # number of demand (read+write) MSHR miss cycles
system.cpu.icache.demand_mshr_miss_latency::total     38059000                       # number of demand (read+write) MSHR miss cycles
system.cpu.icache.overall_mshr_miss_latency::.cpu.inst     38059000                       # number of overall MSHR miss cycles
system.cpu.icache.overall_mshr_miss_latency::total     38059000                       # number of overall MSHR miss cycles
system.cpu.icache.demand_mshr_miss_rate::.cpu.inst     0.002568                       # mshr miss rate for demand accesses
system.cpu.icache.demand_mshr_miss_rate::total     0.002568                       # mshr miss rate for demand accesses
system.cpu.icache.overall_mshr_miss_rate::.cpu.inst     0.002568                       # mshr miss rate for overall accesses
system.cpu.icache.overall_mshr_miss_rate::total     0.002568                       # mshr miss rate for overall accesses
system.cpu.icache.demand_avg_mshr_miss_latency::.cpu.inst 113949.101796                       # average overall mshr miss latency
system.cpu.icache.demand_avg_mshr_miss_latency::total 113949.101796                       # average overall mshr miss latency
system.cpu.icache.overall_avg_mshr_miss_latency::.cpu.inst 113949.101796                       # average overall mshr miss latency
system.cpu.icache.overall_avg_mshr_miss_latency::total 113949.101796                       # average overall mshr miss latency
system.cpu.icache.replacements                      0                       # number of replacements
system.cpu.icache.ReadReq_hits::.cpu.inst       129628                       # number of ReadReq hits
system.cpu.icache.ReadReq_hits::total          129628                       # number of ReadReq hits
system.cpu.icache.ReadReq_misses::.cpu.inst          453                       # number of ReadReq misses
system.cpu.icache.ReadReq_misses::total           453                       # number of ReadReq misses
system.cpu.icache.ReadReq_miss_latency::.cpu.inst     49131000                       # number of ReadReq miss cycles
system.cpu.icache.ReadReq_miss_latency::total     49131000                       # number of ReadReq miss cycles
system.cpu.icache.ReadReq_accesses::.cpu.inst       130081                       # number of ReadReq accesses(hits+misses)
system.cpu.icache.ReadReq_accesses::total       130081                       # number of ReadReq accesses(hits+misses)
system.cpu.icache.ReadReq_miss_rate::.cpu.inst     0.003482                       # miss rate for ReadReq accesses
system.cpu.icache.ReadReq_miss_rate::total     0.003482                       # miss rate for ReadReq accesses
system.cpu.icache.ReadReq_avg_miss_latency::.cpu.inst 108456.953642                       # average ReadReq miss latency
system.cpu.icache.ReadReq_avg_miss_latency::total 108456.953642                       # average ReadReq miss latency
system.cpu.icache.ReadReq_mshr_hits::.cpu.inst          119                       # number of ReadReq MSHR hits
system.cpu.icache.ReadReq_mshr_hits::total          119                       # number of ReadReq MSHR hits
system.cpu.icache.ReadReq_mshr_misses::.cpu.inst          334                       # number of ReadReq MSHR misses
system.cpu.icache.ReadReq_mshr_misses::total          334                       # number of ReadReq MSHR misses
system.cpu.icache.ReadReq_mshr_miss_latency::.cpu.inst     38059000                       # number of ReadReq MSHR miss cycles
system.cpu.icache.ReadReq_mshr_miss_latency::total     38059000                       # number of ReadReq MSHR miss cycles
system.cpu.icache.ReadReq_mshr_miss_rate::.cpu.inst     0.002568                       # mshr miss rate for ReadReq accesses
system.cpu.icache.ReadReq_mshr_miss_rate::total     0.002568                       # mshr miss rate for ReadReq accesses
system.cpu.icache.ReadReq_avg_mshr_miss_latency::.cpu.inst 113949.101796                       # average ReadReq mshr miss latency
system.cpu.icache.ReadReq_avg_mshr_miss_latency::total 113949.101796                       # average ReadReq mshr miss latency
system.cpu.icache.tags.pwrStateResidencyTicks::UNDEFINED  24963223000                       # Cumulative time (in ticks) in various power states
system.cpu.icache.tags.tagsinuse           309.267189                       # Cycle average of tags in use
system.cpu.icache.tags.total_refs              129961                       # Total number of references to valid blocks.
system.cpu.icache.tags.sampled_refs               333                       # Sample count of references to valid blocks.
system.cpu.icache.tags.avg_refs            390.273273                       # Average number of references to valid blocks.
system.cpu.icache.tags.warmup_cycle            112000                       # Cycle when the warmup percentage was hit.
system.cpu.icache.tags.occ_blocks::.cpu.inst   309.267189                       # Average occupied blocks per requestor
system.cpu.icache.tags.occ_percent::.cpu.inst     0.151009                       # Average percentage of cache occupancy
system.cpu.icache.tags.occ_percent::total     0.151009                       # Average percentage of cache occupancy
system.cpu.icache.tags.occ_task_id_blocks::1024          333                       # Occupied blocks per task id
system.cpu.icache.tags.age_task_id_blocks_1024::0           22                       # Occupied blocks per task id
system.cpu.icache.tags.age_task_id_blocks_1024::2            1                       # Occupied blocks per task id
system.cpu.icache.tags.age_task_id_blocks_1024::4          310                       # Occupied blocks per task id
system.cpu.icache.tags.occ_task_id_percent::1024     0.162598                       # Percentage of cache occupancy per task id
system.cpu.icache.tags.tag_accesses            260495                       # Number of tag accesses
system.cpu.icache.tags.data_accesses           260495                       # Number of data accesses
system.cpu.dtb.walker.pwrStateResidencyTicks::UNDEFINED  24963223000                       # Cumulative time (in ticks) in various power states
system.cpu.interrupts.clk_domain.clock          16000                       # Clock period in ticks
system.cpu.itb.walker.pwrStateResidencyTicks::UNDEFINED  24963223000                       # Cumulative time (in ticks) in various power states
system.cpu.dcache.pwrStateResidencyTicks::UNDEFINED  24963223000                       # Cumulative time (in ticks) in various power states
system.cpu.dcache.demand_hits::.cpu.data      1514503                       # number of demand (read+write) hits
system.cpu.dcache.demand_hits::total          1514503                       # number of demand (read+write) hits
system.cpu.dcache.overall_hits::.cpu.data      1514503                       # number of overall hits
system.cpu.dcache.overall_hits::total         1514503                       # number of overall hits
system.cpu.dcache.demand_misses::.cpu.data       812023                       # number of demand (read+write) misses
system.cpu.dcache.demand_misses::total         812023                       # number of demand (read+write) misses
system.cpu.dcache.overall_misses::.cpu.data       812023                       # number of overall misses
system.cpu.dcache.overall_misses::total        812023                       # number of overall misses
system.cpu.dcache.demand_miss_latency::.cpu.data  22781139000                       # number of demand (read+write) miss cycles
system.cpu.dcache.demand_miss_latency::total  22781139000                       # number of demand (read+write) miss cycles
system.cpu.dcache.overall_miss_latency::.cpu.data  22781139000                       # number of overall miss cycles
system.cpu.dcache.overall_miss_latency::total  22781139000                       # number of overall miss cycles
system.cpu.dcache.demand_accesses::.cpu.data      2326526                       # number of demand (read+write) accesses
system.cpu.dcache.demand_accesses::total      2326526                       # number of demand (read+write) accesses
system.cpu.dcache.overall_accesses::.cpu.data      2326526                       # number of overall (read+write) accesses
system.cpu.dcache.overall_accesses::total      2326526                       # number of overall (read+write) accesses
system.cpu.dcache.demand_miss_rate::.cpu.data     0.349028                       # miss rate for demand accesses
system.cpu.dcache.demand_miss_rate::total     0.349028                       # miss rate for demand accesses
system.cpu.dcache.overall_miss_rate::.cpu.data     0.349028                       # miss rate for overall accesses
system.cpu.dcache.overall_miss_rate::total     0.349028                       # miss rate for overall accesses
system.cpu.dcache.demand_avg_miss_latency::.cpu.data 28054.795246                       # average overall miss latency
system.cpu.dcache.demand_avg_miss_latency::total 28054.795246                       # average overall miss latency
system.cpu.dcache.overall_avg_miss_latency::.cpu.data 28054.795246                       # average overall miss latency
system.cpu.dcache.overall_avg_miss_latency::total 28054.795246                       # average overall miss latency
system.cpu.dcache.blocked_cycles::no_mshrs          256                       # number of cycles access was blocked
system.cpu.dcache.blocked_cycles::no_targets            0                       # number of cycles access was blocked
system.cpu.dcache.blocked::no_mshrs                 9                       # number of cycles access was blocked
system.cpu.dcache.blocked::no_targets               0                       # number of cycles access was blocked
system.cpu.dcache.avg_blocked_cycles::no_mshrs    28.444444                       # average number of cycles each access was blocked
system.cpu.dcache.avg_blocked_cycles::no_targets          nan                       # average number of cycles each access was blocked
system.cpu.dcache.writebacks::.writebacks       763178                       # number of writebacks
system.cpu.dcache.writebacks::total            763178                       # number of writebacks
system.cpu.dcache.demand_mshr_hits::.cpu.data        46756                       # number of demand (read+write) MSHR hits
system.cpu.dcache.demand_mshr_hits::total        46756                       # number of demand (read+write) MSHR hits
system.cpu.dcache.overall_mshr_hits::.cpu.data        46756                       # number of overall MSHR hits
system.cpu.dcache.overall_mshr_hits::total        46756                       # number of overall MSHR hits
system.cpu.dcache.demand_mshr_misses::.cpu.data       765267                       # number of demand (read+write) MSHR misses
system.cpu.dcache.demand_mshr_misses::total       765267                       # number of demand (read+write) MSHR misses
system.cpu.dcache.overall_mshr_misses::.cpu.data       765267                       # number of overall MSHR misses
system.cpu.dcache.overall_mshr_misses::total       765267                       # number of overall MSHR misses
system.cpu.dcache.demand_mshr_miss_latency::.cpu.data  20193967000                       # number of demand (read+write) MSHR miss cycles
system.cpu.dcache.demand_mshr_miss_latency::total  20193967000                       # number of demand (read+write) MSHR miss cycles
system.cpu.dcache.overall_mshr_miss_latency::.cpu.data  20193967000                       # number of overall MSHR miss cycles
system.cpu.dcache.overall_mshr_miss_latency::total  20193967000                       # number of overall MSHR miss cycles
system.cpu.dcache.demand_mshr_miss_rate::.cpu.data     0.328931                       # mshr miss rate for demand accesses
system.cpu.dcache.demand_mshr_miss_rate::total     0.328931                       # mshr miss rate for demand accesses
system.cpu.dcache.overall_mshr_miss_rate::.cpu.data     0.328931                       # mshr miss rate for overall accesses
system.cpu.dcache.overall_mshr_miss_rate::total     0.328931                       # mshr miss rate for overall accesses
system.cpu.dcache.demand_avg_mshr_miss_latency::.cpu.data 26388.132508                       # average overall mshr miss latency
system.cpu.dcache.demand_avg_mshr_miss_latency::total 26388.132508                       # average overall mshr miss latency
system.cpu.dcache.overall_avg_mshr_miss_latency::.cpu.data 26388.132508                       # average overall mshr miss latency
system.cpu.dcache.overall_avg_mshr_miss_latency::total 26388.132508                       # average overall mshr miss latency
system.cpu.dcache.replacements                 763218                       # number of replacements
system.cpu.dcache.ReadReq_hits::.cpu.data        65211                       # number of ReadReq hits
system.cpu.dcache.ReadReq_hits::total           65211                       # number of ReadReq hits
system.cpu.dcache.ReadReq_misses::.cpu.data        62411                       # number of ReadReq misses
system.cpu.dcache.ReadReq_misses::total         62411                       # number of ReadReq misses
system.cpu.dcache.ReadReq_miss_latency::.cpu.data   1471333000                       # number of ReadReq miss cycles
system.cpu.dcache.ReadReq_miss_latency::total   1471333000                       # number of ReadReq miss cycles
system.cpu.dcache.ReadReq_accesses::.cpu.data       127622                       # number of ReadReq accesses(hits+misses)
system.cpu.dcache.ReadReq_accesses::total       127622                       # number of ReadReq accesses(hits+misses)
system.cpu.dcache.ReadReq_miss_rate::.cpu.data     0.489030                       # miss rate for ReadReq accesses
system.cpu.dcache.ReadReq_miss_rate::total     0.489030                       # miss rate for ReadReq accesses
system.cpu.dcache.ReadReq_avg_miss_latency::.cpu.data 23574.898656                       # average ReadReq miss latency
system.cpu.dcache.ReadReq_avg_miss_latency::total 23574.898656                       # average ReadReq miss latency
system.cpu.dcache.ReadReq_mshr_hits::.cpu.data        46754                       # number of ReadReq MSHR hits
system.cpu.dcache.ReadReq_mshr_hits::total        46754                       # number of ReadReq MSHR hits
system.cpu.dcache.ReadReq_mshr_misses::.cpu.data        15657                       # number of ReadReq MSHR misses
system.cpu.dcache.ReadReq_mshr_misses::total        15657                       # number of ReadReq MSHR misses
system.cpu.dcache.ReadReq_mshr_miss_latency::.cpu.data    383494000                       # number of ReadReq MSHR miss cycles
system.cpu.dcache.ReadReq_mshr_miss_latency::total    383494000                       # number of ReadReq MSHR miss cycles
system.cpu.dcache.ReadReq_mshr_miss_rate::.cpu.data     0.122683                       # mshr miss rate for ReadReq accesses
system.cpu.dcache.ReadReq_mshr_miss_rate::total     0.122683                       # mshr miss rate for ReadReq accesses
system.cpu.dcache.ReadReq_avg_mshr_miss_latency::.cpu.data 24493.453407                       # average ReadReq mshr miss latency
system.cpu.dcache.ReadReq_avg_mshr_miss_latency::total 24493.453407                       # average ReadReq mshr miss latency
system.cpu.dcache.WriteReq_hits::.cpu.data      1449292                       # number of WriteReq hits
system.cpu.dcache.WriteReq_hits::total        1449292                       # number of WriteReq hits
system.cpu.dcache.WriteReq_misses::.cpu.data       749612                       # number of WriteReq misses
system.cpu.dcache.WriteReq_misses::total       749612                       # number of WriteReq misses
system.cpu.dcache.WriteReq_miss_latency::.cpu.data  21309806000                       # number of WriteReq miss cycles
system.cpu.dcache.WriteReq_miss_latency::total  21309806000                       # number of WriteReq miss cycles
system.cpu.dcache.WriteReq_accesses::.cpu.data      2198904                       # number of WriteReq accesses(hits+misses)
system.cpu.dcache.WriteReq_accesses::total      2198904                       # number of WriteReq accesses(hits+misses)
system.cpu.dcache.WriteReq_miss_rate::.cpu.data     0.340903                       # miss rate for WriteReq accesses
system.cpu.dcache.WriteReq_miss_rate::total     0.340903                       # miss rate for WriteReq accesses
system.cpu.dcache.WriteReq_avg_miss_latency::.cpu.data 28427.781306                       # average WriteReq miss latency
system.cpu.dcache.WriteReq_avg_miss_latency::total 28427.781306                       # average WriteReq miss latency
system.cpu.dcache.WriteReq_mshr_hits::.cpu.data            2                       # number of WriteReq MSHR hits
system.cpu.dcache.WriteReq_mshr_hits::total            2                       # number of WriteReq MSHR hits
system.cpu.dcache.WriteReq_mshr_misses::.cpu.data       749610                       # number of WriteReq MSHR misses
system.cpu.dcache.WriteReq_mshr_misses::total       749610                       # number of WriteReq MSHR misses
system.cpu.dcache.WriteReq_mshr_miss_latency::.cpu.data  19810473000                       # number of WriteReq MSHR miss cycles
system.cpu.dcache.WriteReq_mshr_miss_latency::total  19810473000                       # number of WriteReq MSHR miss cycles
system.cpu.dcache.WriteReq_mshr_miss_rate::.cpu.data     0.340902                       # mshr miss rate for WriteReq accesses
system.cpu.dcache.WriteReq_mshr_miss_rate::total     0.340902                       # mshr miss rate for WriteReq accesses
system.cpu.dcache.WriteReq_avg_mshr_miss_latency::.cpu.data 26427.706407                       # average WriteReq mshr miss latency
system.cpu.dcache.WriteReq_avg_mshr_miss_latency::total 26427.706407                       # average WriteReq mshr miss latency
system.cpu.dcache.tags.pwrStateResidencyTicks::UNDEFINED  24963223000                       # Cumulative time (in ticks) in various power states
system.cpu.dcache.tags.tagsinuse          2032.818734                       # Cycle average of tags in use
system.cpu.dcache.tags.total_refs             2279769                       # Total number of references to valid blocks.
system.cpu.dcache.tags.sampled_refs            765266                       # Sample count of references to valid blocks.
system.cpu.dcache.tags.avg_refs              2.979054                       # Average number of references to valid blocks.
system.cpu.dcache.tags.warmup_cycle            232000                       # Cycle when the warmup percentage was hit.
system.cpu.dcache.tags.occ_blocks::.cpu.data  2032.818734                       # Average occupied blocks per requestor
system.cpu.dcache.tags.occ_percent::.cpu.data     0.992587                       # Average percentage of cache occupancy
system.cpu.dcache.tags.occ_percent::total     0.992587                       # Average percentage of cache occupancy
system.cpu.dcache.tags.occ_task_id_blocks::1024         2048                       # Occupied blocks per task id
system.cpu.dcache.tags.age_task_id_blocks_1024::0          191                       # Occupied blocks per task id
system.cpu.dcache.tags.age_task_id_blocks_1024::1         1857                       # Occupied blocks per task id
system.cpu.dcache.tags.occ_task_id_percent::1024            1                       # Percentage of cache occupancy per task id
system.cpu.dcache.tags.tag_accesses           5418318                       # Number of tag accesses
system.cpu.dcache.tags.data_accesses          5418318                       # Number of data accesses
system.l2cache.pwrStateResidencyTicks::UNDEFINED  24963223000                       # Cumulative time (in ticks) in various power states
system.l2cache.demand_hits::.cpu.inst               1                       # number of demand (read+write) hits
system.l2cache.demand_hits::.cpu.data          749468                       # number of demand (read+write) hits
system.l2cache.demand_hits::total              749469                       # number of demand (read+write) hits
system.l2cache.overall_hits::.cpu.inst              1                       # number of overall hits
system.l2cache.overall_hits::.cpu.data         749468                       # number of overall hits
system.l2cache.overall_hits::total             749469                       # number of overall hits
system.l2cache.demand_misses::.cpu.inst           333                       # number of demand (read+write) misses
system.l2cache.demand_misses::.cpu.data         15799                       # number of demand (read+write) misses
system.l2cache.demand_misses::total             16132                       # number of demand (read+write) misses
system.l2cache.overall_misses::.cpu.inst          333                       # number of overall misses
system.l2cache.overall_misses::.cpu.data        15799                       # number of overall misses
system.l2cache.overall_misses::total            16132                       # number of overall misses
system.l2cache.demand_miss_latency::.cpu.inst     37035000                       # number of demand (read+write) miss cycles
system.l2cache.demand_miss_latency::.cpu.data   1628721000                       # number of demand (read+write) miss cycles
system.l2cache.demand_miss_latency::total   1665756000                       # number of demand (read+write) miss cycles
system.l2cache.overall_miss_latency::.cpu.inst     37035000                       # number of overall miss cycles
system.l2cache.overall_miss_latency::.cpu.data   1628721000                       # number of overall miss cycles
system.l2cache.overall_miss_latency::total   1665756000                       # number of overall miss cycles
system.l2cache.demand_accesses::.cpu.inst          334                       # number of demand (read+write) accesses
system.l2cache.demand_accesses::.cpu.data       765267                       # number of demand (read+write) accesses
[...]
system.mem_ctrl.rdQLenPdf::10                       0                       # What read queue length does an incoming req see
system.mem_ctrl.rdQLenPdf::11                       0                       # What read queue length does an incoming req see
system.mem_ctrl.rdQLenPdf::12                       0                       # What read queue length does an incoming req see
system.mem_ctrl.rdQLenPdf::13                       0                       # What read queue length does an incoming req see
system.mem_ctrl.rdQLenPdf::14                       0                       # What read queue length does an incoming req see
system.mem_ctrl.rdQLenPdf::15                       0                       # What read queue length does an incoming req see
system.mem_ctrl.rdQLenPdf::16                       0                       # What read queue length does an incoming req see
system.mem_ctrl.rdQLenPdf::17                       0                       # What read queue length does an incoming req see
system.mem_ctrl.rdQLenPdf::18                       0                       # What read queue length does an incoming req see
system.mem_ctrl.rdQLenPdf::19                       0                       # What read queue length does an incoming req see
system.mem_ctrl.rdQLenPdf::20                       0                       # What read queue length does an incoming req see
system.mem_ctrl.rdQLenPdf::21                       0                       # What read queue length does an incoming req see
system.mem_ctrl.rdQLenPdf::22                       0                       # What read queue length does an incoming req see
system.mem_ctrl.rdQLenPdf::23                       0                       # What read queue length does an incoming req see
system.mem_ctrl.rdQLenPdf::24                       0                       # What read queue length does an incoming req see
system.mem_ctrl.rdQLenPdf::25                       0                       # What read queue length does an incoming req see
system.mem_ctrl.rdQLenPdf::26                       0                       # What read queue length does an incoming req see
system.mem_ctrl.rdQLenPdf::27                       0                       # What read queue length does an incoming req see
system.mem_ctrl.rdQLenPdf::28                       0                       # What read queue length does an incoming req see
system.mem_ctrl.rdQLenPdf::29                       0                       # What read queue length does an incoming req see
system.mem_ctrl.rdQLenPdf::30                       0                       # What read queue length does an incoming req see
system.mem_ctrl.rdQLenPdf::31                       0                       # What read queue length does an incoming req see
system.mem_ctrl.wrQLenPdf::0                        1                       # What write queue length does an incoming req see
system.mem_ctrl.wrQLenPdf::1                        1                       # What write queue length does an incoming req see
system.mem_ctrl.wrQLenPdf::2                        1                       # What write queue length does an incoming req see
system.mem_ctrl.wrQLenPdf::3                        1                       # What write queue length does an incoming req see
system.mem_ctrl.wrQLenPdf::4                        1                       # What write queue length does an incoming req see
system.mem_ctrl.wrQLenPdf::5                        1                       # What write queue length does an incoming req see
system.mem_ctrl.wrQLenPdf::6                        1                       # What write queue length does an incoming req see
system.mem_ctrl.wrQLenPdf::7                        1                       # What write queue length does an incoming req see
system.mem_ctrl.wrQLenPdf::8                        1                       # What write queue length does an incoming req see
system.mem_ctrl.wrQLenPdf::9                        1                       # What write queue length does an incoming req see
system.mem_ctrl.wrQLenPdf::10                       1                       # What write queue length does an incoming req see
system.mem_ctrl.wrQLenPdf::11                       1                       # What write queue length does an incoming req see
system.mem_ctrl.wrQLenPdf::12                       1                       # What write queue length does an incoming req see
system.mem_ctrl.wrQLenPdf::13                       1                       # What write queue length does an incoming req see
system.mem_ctrl.wrQLenPdf::14                       1                       # What write queue length does an incoming req see
system.mem_ctrl.wrQLenPdf::15                       1                       # What write queue length does an incoming req see
system.mem_ctrl.wrQLenPdf::16                       1                       # What write queue length does an incoming req see
system.mem_ctrl.wrQLenPdf::17                       1                       # What write queue length does an incoming req see
system.mem_ctrl.wrQLenPdf::18                       1                       # What write queue length does an incoming req see
system.mem_ctrl.wrQLenPdf::19                       2                       # What write queue length does an incoming req see
system.mem_ctrl.wrQLenPdf::20                       2                       # What write queue length does an incoming req see
system.mem_ctrl.wrQLenPdf::21                       2                       # What write queue length does an incoming req see
system.mem_ctrl.wrQLenPdf::22                       2                       # What write queue length does an incoming req see
system.mem_ctrl.wrQLenPdf::23                       2                       # What write queue length does an incoming req see
system.mem_ctrl.wrQLenPdf::24                       3                       # What write queue length does an incoming req see
system.mem_ctrl.wrQLenPdf::25                       3                       # What write queue length does an incoming req see
system.mem_ctrl.wrQLenPdf::26                       2                       # What write queue length does an incoming req see
system.mem_ctrl.wrQLenPdf::27                       2                       # What write queue length does an incoming req see
system.mem_ctrl.wrQLenPdf::28                       2                       # What write queue length does an incoming req see
system.mem_ctrl.wrQLenPdf::29                       2                       # What write queue length does an incoming req see
system.mem_ctrl.wrQLenPdf::30                       2                       # What write queue length does an incoming req see
system.mem_ctrl.wrQLenPdf::31                       1                       # What write queue length does an incoming req see
system.mem_ctrl.wrQLenPdf::32                       1                       # What write queue length does an incoming req see
system.mem_ctrl.wrQLenPdf::33                       1                       # What write queue length does an incoming req see
system.mem_ctrl.wrQLenPdf::34                       0                       # What write queue length does an incoming req see
system.mem_ctrl.wrQLenPdf::35                       0                       # What write queue length does an incoming req see
system.mem_ctrl.wrQLenPdf::36                       0                       # What write queue length does an incoming req see
system.mem_ctrl.wrQLenPdf::37                       0                       # What write queue length does an incoming req see
system.mem_ctrl.wrQLenPdf::38                       0                       # What write queue length does an incoming req see
system.mem_ctrl.wrQLenPdf::39                       0                       # What write queue length does an incoming req see
system.mem_ctrl.wrQLenPdf::40                       0                       # What write queue length does an incoming req see
system.mem_ctrl.wrQLenPdf::41                       0                       # What write queue length does an incoming req see
system.mem_ctrl.wrQLenPdf::42                       0                       # What write queue length does an incoming req see
system.mem_ctrl.wrQLenPdf::43                       0                       # What write queue length does an incoming req see
system.mem_ctrl.wrQLenPdf::44                       0                       # What write queue length does an incoming req see
system.mem_ctrl.wrQLenPdf::45                       0                       # What write queue length does an incoming req see
system.mem_ctrl.wrQLenPdf::46                       0                       # What write queue length does an incoming req see
system.mem_ctrl.wrQLenPdf::47                       0                       # What write queue length does an incoming req see
system.mem_ctrl.wrQLenPdf::48                       0                       # What write queue length does an incoming req see
system.mem_ctrl.wrQLenPdf::49                       0                       # What write queue length does an incoming req see
system.mem_ctrl.wrQLenPdf::50                       0                       # What write queue length does an incoming req see
system.mem_ctrl.wrQLenPdf::51                       0                       # What write queue length does an incoming req see
system.mem_ctrl.wrQLenPdf::52                       0                       # What write queue length does an incoming req see
system.mem_ctrl.wrQLenPdf::53                       0                       # What write queue length does an incoming req see
system.mem_ctrl.wrQLenPdf::54                       0                       # What write queue length does an incoming req see
system.mem_ctrl.wrQLenPdf::55                       0                       # What write queue length does an incoming req see
system.mem_ctrl.wrQLenPdf::56                       0                       # What write queue length does an incoming req see
system.mem_ctrl.wrQLenPdf::57                       0                       # What write queue length does an incoming req see
system.mem_ctrl.wrQLenPdf::58                       0                       # What write queue length does an incoming req see
system.mem_ctrl.wrQLenPdf::59                       0                       # What write queue length does an incoming req see
system.mem_ctrl.wrQLenPdf::60                       0                       # What write queue length does an incoming req see
system.mem_ctrl.wrQLenPdf::61                       0                       # What write queue length does an incoming req see
system.mem_ctrl.wrQLenPdf::62                       0                       # What write queue length does an incoming req see
system.mem_ctrl.wrQLenPdf::63                       0                       # What write queue length does an incoming req see
system.mem_ctrl.bytesPerActivate::samples         2730                       # Bytes accessed per row activation
system.mem_ctrl.bytesPerActivate::mean     377.951648                       # Bytes accessed per row activation
system.mem_ctrl.bytesPerActivate::gmean    317.239146                       # Bytes accessed per row activation
system.mem_ctrl.bytesPerActivate::stdev    166.803502                       # Bytes accessed per row activation
system.mem_ctrl.bytesPerActivate::64-127          285     10.44%     10.44% # Bytes accessed per row activation
system.mem_ctrl.bytesPerActivate::128-191          233      8.53%     18.97% # Bytes accessed per row activation
system.mem_ctrl.bytesPerActivate::192-255          116      4.25%     23.22% # Bytes accessed per row activation
system.mem_ctrl.bytesPerActivate::256-319          206      7.55%     30.77% # Bytes accessed per row activation
system.mem_ctrl.bytesPerActivate::320-383          107      3.92%     34.69% # Bytes accessed per row activation
system.mem_ctrl.bytesPerActivate::384-447          201      7.36%     42.05% # Bytes accessed per row activation
system.mem_ctrl.bytesPerActivate::448-511          198      7.25%     49.30% # Bytes accessed per row activation
system.mem_ctrl.bytesPerActivate::512-575         1384     50.70%    100.00% # Bytes accessed per row activation
system.mem_ctrl.bytesPerActivate::total          2730                       # Bytes accessed per row activation
system.mem_ctrl.rdPerTurnAround::samples            1                       # Reads before turning the bus around for writes
system.mem_ctrl.rdPerTurnAround::mean           32220                       # Reads before turning the bus around for writes
system.mem_ctrl.rdPerTurnAround::gmean          32220                       # Reads before turning the bus around for writes
system.mem_ctrl.rdPerTurnAround::stdev            nan                       # Reads before turning the bus around for writes
system.mem_ctrl.rdPerTurnAround::31744-32767            1    100.00%    100.00% # Reads before turning the bus around for writes
system.mem_ctrl.rdPerTurnAround::total              1                       # Reads before turning the bus around for writes
system.mem_ctrl.wrPerTurnAround::samples            1                       # Writes before turning the bus around for reads
system.mem_ctrl.wrPerTurnAround::mean              17                       # Writes before turning the bus around for reads
system.mem_ctrl.wrPerTurnAround::gmean             17                       # Writes before turning the bus around for reads
system.mem_ctrl.wrPerTurnAround::stdev            nan                       # Writes before turning the bus around for reads
system.mem_ctrl.wrPerTurnAround::17                 1    100.00%    100.00% # Writes before turning the bus around for reads
system.mem_ctrl.wrPerTurnAround::total              1                       # Writes before turning the bus around for reads
system.mem_ctrl.bytesReadDRAM                 1032256                       # Total number of bytes read from DRAM
system.mem_ctrl.bytesReadWrQ                      128                       # Total number of bytes read from write queue
system.mem_ctrl.bytesWritten                      544                       # Total number of bytes written to DRAM
system.mem_ctrl.bytesReadSys                  1032384                       # Total read bytes from the system interface side
system.mem_ctrl.bytesWrittenSys                  1536                       # Total written bytes from the system interface side
system.mem_ctrl.avgRdBW                         41.35                       # Average DRAM read bandwidth in MiByte/s
system.mem_ctrl.avgWrBW                          0.02                       # Average achieved write bandwidth in MiByte/s
system.mem_ctrl.avgRdBWSys                      41.36                       # Average system read bandwidth in MiByte/s
system.mem_ctrl.avgWrBWSys                       0.06                       # Average system write bandwidth in MiByte/s
system.mem_ctrl.peakBW                        8000.00                       # Theoretical peak bandwidth in MiByte/s
system.mem_ctrl.busUtil                          0.52                       # Data bus utilization in percentage
system.mem_ctrl.busUtilRead                      0.52                       # Data bus utilization in percentage for reads
system.mem_ctrl.busUtilWrite                     0.00                       # Data bus utilization in percentage for writes
system.mem_ctrl.totGap                    24963170000                       # Total gap between requests
system.mem_ctrl.avgGap                     1545228.72                       # Average gap between requests
system.mem_ctrl.masterReadBytes::.cpu.inst        21248                       # Per-master bytes read from memory
system.mem_ctrl.masterReadBytes::.cpu.data      1011008                       # Per-master bytes read from memory
system.mem_ctrl.masterWriteBytes::.writebacks          544                       # Per-master bytes write to memory
system.mem_ctrl.masterReadRate::.cpu.inst 851172.142315116944                       # Per-master bytes read from memory rate (Bytes/sec)
system.mem_ctrl.masterReadRate::.cpu.data 40499898.590818978846                       # Per-master bytes read from memory rate (Bytes/sec)
system.mem_ctrl.masterWriteRate::.writebacks 21792.057860477391                       # Per-master bytes write to memory rate (Bytes/sec)
system.mem_ctrl.masterReadAccesses::.cpu.inst          664                       # Per-master read serviced memory accesses
system.mem_ctrl.masterReadAccesses::.cpu.data        31598                       # Per-master read serviced memory accesses
system.mem_ctrl.masterWriteAccesses::.writebacks           48                       # Per-master write serviced memory accesses
system.mem_ctrl.masterReadTotalLat::.cpu.inst     25596000                       # Per-master read total memory access latency
system.mem_ctrl.masterReadTotalLat::.cpu.data    950720000                       # Per-master read total memory access latency
system.mem_ctrl.masterWriteTotalLat::.writebacks  46590890000                       # Per-master write total memory access latency
system.mem_ctrl.masterReadAvgLat::.cpu.inst     38548.19                       # Per-master read average memory access latency
system.mem_ctrl.masterReadAvgLat::.cpu.data     30087.98                       # Per-master read average memory access latency
system.mem_ctrl.masterWriteAvgLat::.writebacks 970643541.67                       # Per-master write average memory access latency
system.mem_ctrl.pageHitRate                     91.43                       # Row buffer hit rate, read and write combined
system.mem_ctrl.rank0.actEnergy                     0                       # Energy for activate commands per rank (pJ)
system.mem_ctrl.rank0.preEnergy                     0                       # Energy for precharge commands per rank (pJ)
system.mem_ctrl.rank0.readEnergy                    0                       # Energy for read commands per rank (pJ)
system.mem_ctrl.rank0.writeEnergy                   0                       # Energy for write commands per rank (pJ)
system.mem_ctrl.rank0.refreshEnergy                 0                       # Energy for refresh commands per rank (pJ)
system.mem_ctrl.rank0.actBackEnergy                 0                       # Energy for active background per rank (pJ)
system.mem_ctrl.rank0.preBackEnergy                 0                       # Energy for precharge background per rank (pJ)
system.mem_ctrl.rank0.actPowerDownEnergy            0                       # Energy for active power-down per rank (pJ)
system.mem_ctrl.rank0.prePowerDownEnergy            0                       # Energy for precharge power-down per rank (pJ)
system.mem_ctrl.rank0.selfRefreshEnergy             0                       # Energy for self refresh per rank (pJ)
system.mem_ctrl.rank0.totalEnergy                   0                       # Total energy per rank (pJ)
system.mem_ctrl.rank0.averagePower                  0                       # Core power per rank (mW)
system.mem_ctrl.rank0.totalIdleTime                 0                       # Total Idle time Per DRAM Rank
system.mem_ctrl.rank0.memoryStateTime::IDLE  20837929000                       # Time in different power states
system.mem_ctrl.rank0.memoryStateTime::REF   1670500000                       # Time in different power states
system.mem_ctrl.rank0.memoryStateTime::SREF            0                       # Time in different power states
system.mem_ctrl.rank0.memoryStateTime::PRE_PDN            0                       # Time in different power states
system.mem_ctrl.rank0.memoryStateTime::ACT   2454794000                       # Time in different power states
system.mem_ctrl.rank0.memoryStateTime::ACT_PDN            0                       # Time in different power states

---------- End Simulation Statistics   ----------
